MODEL 1
REMARK VINA RESULT:   -10.012      0.000      0.000
REMARK INTER + INTRA:         -20.572
REMARK INTER:                 -18.206
REMARK INTRA:                  -2.366
REMARK UNBOUND:                -2.366
REMARK SMILES CC(=O)Oc1c(C)c(C)c2c(c1C)CC[C@@](C)(CCC[C@H](C)CCC[C@H](C)CCCC(C)C)O2
REMARK SMILES IDX 23 1 24 2 25 3 26 4 27 5 28 6 29 7 30 8 31 9 32 10 33 11
REMARK SMILES IDX 21 12 22 13 20 14 19 15 18 16 16 17 17 18 15 19 34 20 14 21
REMARK SMILES IDX 10 22 11 23 8 24 12 25 6 26 9 27 13 28 5 29 7 30 4 31 2 32
REMARK SMILES IDX 1 33 3 34
REMARK H PARENT
REMARK Flexibility Score: inf
ROOT
ATOM      1  C   UNL     1       6.958  75.109  -0.352  1.00  0.00     0.003 C 
ENDROOT
BRANCH   1   2
ATOM      2  C   UNL     1       6.648  74.468  -1.720  1.00  0.00     0.001 C 
BRANCH   2   3
ATOM      3  C   UNL     1       7.812  74.590  -2.722  1.00  0.00     0.003 C 
BRANCH   3   4
ATOM      4  C   UNL     1       9.149  74.051  -2.162  1.00  0.00    -0.014 C 
ATOM      5  C   UNL     1      10.331  74.627  -2.959  1.00  0.00     0.007 C 
BRANCH   4   6
ATOM      6  C   UNL     1       9.235  72.504  -2.072  1.00  0.00     0.003 C 
BRANCH   6   7
ATOM      7  C   UNL     1      10.345  71.866  -2.935  1.00  0.00     0.001 C 
BRANCH   7   8
ATOM      8  C   UNL     1       9.757  71.000  -4.074  1.00  0.00     0.003 C 
BRANCH   8   9
ATOM      9  C   UNL     1       9.976  71.605  -5.482  1.00  0.00    -0.017 C 
ATOM     10  C   UNL     1      11.343  72.304  -5.547  1.00  0.00     0.007 C 
ATOM     11  C   UNL     1       8.867  72.587  -5.874  1.00  0.00     0.007 C 
ENDBRANCH   8   9
ENDBRANCH   7   8
ENDBRANCH   6   7
ENDBRANCH   4   6
ENDBRANCH   3   4
ENDBRANCH   2   3
ENDBRANCH   1   2
BRANCH   1  12
ATOM     12  C   UNL     1       5.766  75.804   0.362  1.00  0.00    -0.014 C 
ATOM     13  C   UNL     1       5.098  74.790   1.309  1.00  0.00     0.007 C 
BRANCH  12  14
ATOM     14  C   UNL     1       6.217  77.064   1.143  1.00  0.00     0.003 C 
BRANCH  14  15
ATOM     15  C   UNL     1       5.969  78.386   0.374  1.00  0.00     0.004 C 
BRANCH  15  16
ATOM     16  C   UNL     1       7.153  79.384   0.417  1.00  0.00     0.048 C 
BRANCH  16  17
ATOM     17  C   UNL     1       8.129  79.422  -0.807  1.00  0.00     0.107 C 
ATOM     18  C   UNL     1       7.584  80.301  -1.956  1.00  0.00     0.056 C 
ATOM     19  C   UNL     1       8.450  77.994  -1.315  1.00  0.00     0.053 C 
ATOM     20  O   UNL     1       9.337  80.023  -0.334  1.00  0.00    -0.487 OA
ATOM     21  C   UNL     1       9.623  77.972  -2.304  1.00  0.00     0.044 C 
ATOM     22  C   UNL     1      10.602  79.827  -0.906  1.00  0.00     0.127 A 
ATOM     23  C   UNL     1      10.801  78.810  -1.858  1.00  0.00     0.001 A 
ATOM     24  C   UNL     1      11.669  80.653  -0.504  1.00  0.00    -0.002 A 
ATOM     25  C   UNL     1      12.074  78.647  -2.452  1.00  0.00    -0.001 A 
ATOM     26  C   UNL     1      12.970  80.414  -1.013  1.00  0.00    -0.001 A 
ATOM     27  C   UNL     1      11.424  81.757   0.498  1.00  0.00     0.049 C 
ATOM     28  C   UNL     1      12.289  77.609  -3.531  1.00  0.00     0.049 C 
ATOM     29  C   UNL     1      13.155  79.442  -2.017  1.00  0.00     0.137 A 
ATOM     30  C   UNL     1      14.149  81.237  -0.543  1.00  0.00     0.049 C 
BRANCH  29  31
ATOM     31  O   UNL     1      14.423  79.256  -2.585  1.00  0.00    -0.426 OA
BRANCH  31  32
ATOM     32  C   UNL     1      14.849  79.964  -3.717  1.00  0.00     0.308 C 
ATOM     33  C   UNL     1      13.842  80.639  -4.584  1.00  0.00     0.139 C 
ATOM     34  O   UNL     1      16.071  80.017  -4.022  1.00  0.00    -0.252 OA
ENDBRANCH  31  32
ENDBRANCH  29  31
ENDBRANCH  16  17
ENDBRANCH  15  16
ENDBRANCH  14  15
ENDBRANCH  12  14
ENDBRANCH   1  12
TORSDOF 14
ENDMDL
MODEL 2
REMARK VINA RESULT:    -9.040      2.470      7.691
REMARK INTER + INTRA:         -18.804
REMARK INTER:                 -16.591
REMARK INTRA:                  -2.213
REMARK UNBOUND:                -2.366
REMARK SMILES CC(=O)Oc1c(C)c(C)c2c(c1C)CC[C@@](C)(CCC[C@H](C)CCC[C@H](C)CCCC(C)C)O2
REMARK SMILES IDX 23 1 24 2 25 3 26 4 27 5 28 6 29 7 30 8 31 9 32 10 33 11
REMARK SMILES IDX 21 12 22 13 20 14 19 15 18 16 16 17 17 18 15 19 34 20 14 21
REMARK SMILES IDX 10 22 11 23 8 24 12 25 6 26 9 27 13 28 5 29 7 30 4 31 2 32
REMARK SMILES IDX 1 33 3 34
REMARK H PARENT
REMARK Flexibility Score: inf
ROOT
ATOM      1  C   UNL     1      13.374  80.404  -1.629  1.00  0.00     0.003 C 
ENDROOT
BRANCH   1   2
ATOM      2  C   UNL     1      14.749  79.747  -1.861  1.00  0.00     0.001 C 
BRANCH   2   3
ATOM      3  C   UNL     1      15.163  79.718  -3.345  1.00  0.00     0.003 C 
BRANCH   3   4
ATOM      4  C   UNL     1      13.955  79.631  -4.307  1.00  0.00    -0.014 C 
ATOM      5  C   UNL     1      13.955  78.281  -5.041  1.00  0.00     0.007 C 
BRANCH   4   6
ATOM      6  C   UNL     1      13.840  80.813  -5.306  1.00  0.00     0.003 C 
BRANCH   6   7
ATOM      7  C   UNL     1      15.096  81.707  -5.397  1.00  0.00     0.001 C 
BRANCH   7   8
ATOM      8  C   UNL     1      15.840  81.510  -6.740  1.00  0.00     0.003 C 
BRANCH   8   9
ATOM      9  C   UNL     1      17.231  80.849  -6.580  1.00  0.00    -0.017 C 
ATOM     10  C   UNL     1      17.107  79.324  -6.720  1.00  0.00     0.007 C 
ATOM     11  C   UNL     1      17.892  81.200  -5.243  1.00  0.00     0.007 C 
ENDBRANCH   8   9
ENDBRANCH   7   8
ENDBRANCH   6   7
ENDBRANCH   4   6
ENDBRANCH   3   4
ENDBRANCH   2   3
ENDBRANCH   1   2
BRANCH   1  12
ATOM     12  C   UNL     1      12.588  79.921  -0.380  1.00  0.00    -0.014 C 
ATOM     13  C   UNL     1      13.596  79.439   0.681  1.00  0.00     0.007 C 
BRANCH  12  14
ATOM     14  C   UNL     1      11.680  81.036   0.198  1.00  0.00     0.003 C 
BRANCH  14  15
ATOM     15  C   UNL     1      10.366  81.233  -0.600  1.00  0.00     0.004 C 
BRANCH  15  16
ATOM     16  C   UNL     1       9.120  80.574   0.044  1.00  0.00     0.048 C 
BRANCH  16  17
ATOM     17  C   UNL     1       8.367  79.470  -0.771  1.00  0.00     0.107 C 
ATOM     18  C   UNL     1       7.518  80.071  -1.914  1.00  0.00     0.056 C 
ATOM     19  C   UNL     1       7.493  78.585   0.154  1.00  0.00     0.053 C 
ATOM     20  O   UNL     1       9.379  78.652  -1.364  1.00  0.00    -0.487 OA
ATOM     21  C   UNL     1       6.984  77.322  -0.552  1.00  0.00     0.044 C 
ATOM     22  C   UNL     1       9.200  77.317  -1.754  1.00  0.00     0.127 A 
ATOM     23  C   UNL     1       8.051  76.610  -1.354  1.00  0.00     0.001 A 
ATOM     24  C   UNL     1      10.189  76.696  -2.539  1.00  0.00    -0.002 A 
ATOM     25  C   UNL     1       7.866  75.275  -1.784  1.00  0.00    -0.001 A 
ATOM     26  C   UNL     1      10.060  75.325  -2.872  1.00  0.00    -0.001 A 
ATOM     27  C   UNL     1      11.399  77.486  -2.981  1.00  0.00     0.049 C 
ATOM     28  C   UNL     1       6.604  74.522  -1.427  1.00  0.00     0.049 C 
ATOM     29  C   UNL     1       8.878  74.635  -2.531  1.00  0.00     0.137 A 
ATOM     30  C   UNL     1      11.142  74.611  -3.651  1.00  0.00     0.049 C 
BRANCH  29  31
ATOM     31  O   UNL     1       8.706  73.303  -2.928  1.00  0.00    -0.426 OA
BRANCH  31  32
ATOM     32  C   UNL     1       9.538  72.271  -2.474  1.00  0.00     0.308 C 
ATOM     33  C   UNL     1       9.848  71.126  -3.376  1.00  0.00     0.139 C 
ATOM     34  O   UNL     1      10.007  72.288  -1.304  1.00  0.00    -0.252 OA
ENDBRANCH  31  32
ENDBRANCH  29  31
ENDBRANCH  16  17
ENDBRANCH  15  16
ENDBRANCH  14  15
ENDBRANCH  12  14
ENDBRANCH   1  12
TORSDOF 14
ENDMDL
MODEL 3
REMARK VINA RESULT:    -8.759      1.962      4.122
REMARK INTER + INTRA:         -18.294
REMARK INTER:                 -16.007
REMARK INTRA:                  -2.287
REMARK UNBOUND:                -2.366
REMARK SMILES CC(=O)Oc1c(C)c(C)c2c(c1C)CC[C@@](C)(CCC[C@H](C)CCC[C@H](C)CCCC(C)C)O2
REMARK SMILES IDX 23 1 24 2 25 3 26 4 27 5 28 6 29 7 30 8 31 9 32 10 33 11
REMARK SMILES IDX 21 12 22 13 20 14 19 15 18 16 16 17 17 18 15 19 34 20 14 21
REMARK SMILES IDX 10 22 11 23 8 24 12 25 6 26 9 27 13 28 5 29 7 30 4 31 2 32
REMARK SMILES IDX 1 33 3 34
REMARK H PARENT
REMARK Flexibility Score: inf
ROOT
ATOM      1  C   UNL     1       7.463  76.373   0.114  1.00  0.00     0.003 C 
ENDROOT
BRANCH   1   2
ATOM      2  C   UNL     1       6.500  75.289  -0.411  1.00  0.00     0.001 C 
BRANCH   2   3
ATOM      3  C   UNL     1       7.186  74.270  -1.341  1.00  0.00     0.003 C 
BRANCH   3   4
ATOM      4  C   UNL     1       7.877  74.932  -2.556  1.00  0.00    -0.014 C 
ATOM      5  C   UNL     1       6.855  75.191  -3.675  1.00  0.00     0.007 C 
BRANCH   4   6
ATOM      6  C   UNL     1       9.114  74.164  -3.093  1.00  0.00     0.003 C 
BRANCH   6   7
ATOM      7  C   UNL     1       9.305  72.751  -2.500  1.00  0.00     0.001 C 
BRANCH   7   8
ATOM      8  C   UNL     1      10.291  71.907  -3.343  1.00  0.00     0.003 C 
BRANCH   8   9
ATOM      9  C   UNL     1      10.247  72.238  -4.855  1.00  0.00    -0.017 C 
ATOM     10  C   UNL     1       9.524  71.117  -5.618  1.00  0.00     0.007 C 
ATOM     11  C   UNL     1      11.645  72.456  -5.444  1.00  0.00     0.007 C 
ENDBRANCH   8   9
ENDBRANCH   7   8
ENDBRANCH   6   7
ENDBRANCH   4   6
ENDBRANCH   3   4
ENDBRANCH   2   3
ENDBRANCH   1   2
BRANCH   1  12
ATOM     12  C   UNL     1       7.190  77.822  -0.372  1.00  0.00    -0.014 C 
ATOM     13  C   UNL     1       6.378  78.561   0.709  1.00  0.00     0.007 C 
BRANCH  12  14
ATOM     14  C   UNL     1       8.503  78.584  -0.683  1.00  0.00     0.003 C 
BRANCH  14  15
ATOM     15  C   UNL     1       9.063  78.292  -2.098  1.00  0.00     0.004 C 
BRANCH  15  16
ATOM     16  C   UNL     1      10.407  77.523  -2.109  1.00  0.00     0.048 C 
BRANCH  16  17
ATOM     17  C   UNL     1      11.725  78.346  -2.307  1.00  0.00     0.107 C 
ATOM     18  C   UNL     1      12.662  78.242  -1.083  1.00  0.00     0.056 C 
ATOM     19  C   UNL     1      11.417  79.829  -2.638  1.00  0.00     0.053 C 
ATOM     20  O   UNL     1      12.398  77.758  -3.423  1.00  0.00    -0.487 OA
ATOM     21  C   UNL     1      12.655  80.589  -3.131  1.00  0.00     0.044 C 
ATOM     22  C   UNL     1      13.321  78.425  -4.241  1.00  0.00     0.127 A 
ATOM     23  C   UNL     1      13.463  79.823  -4.156  1.00  0.00     0.001 A 
ATOM     24  C   UNL     1      14.091  77.680  -5.153  1.00  0.00    -0.002 A 
ATOM     25  C   UNL     1      14.423  80.479  -4.962  1.00  0.00    -0.001 A 
ATOM     26  C   UNL     1      14.968  78.349  -6.041  1.00  0.00    -0.001 A 
ATOM     27  C   UNL     1      13.941  76.176  -5.205  1.00  0.00     0.049 C 
ATOM     28  C   UNL     1      14.643  81.970  -4.832  1.00  0.00     0.049 C 
ATOM     29  C   UNL     1      15.162  79.740  -5.910  1.00  0.00     0.137 A 
ATOM     30  C   UNL     1      15.752  77.582  -7.082  1.00  0.00     0.049 C 
BRANCH  29  31
ATOM     31  O   UNL     1      16.089  80.398  -6.728  1.00  0.00    -0.426 OA
BRANCH  31  32
ATOM     32  C   UNL     1      17.452  80.470  -6.410  1.00  0.00     0.308 C 
ATOM     33  C   UNL     1      18.428  80.902  -7.451  1.00  0.00     0.139 C 
ATOM     34  O   UNL     1      17.864  80.151  -5.262  1.00  0.00    -0.252 OA
ENDBRANCH  31  32
ENDBRANCH  29  31
ENDBRANCH  16  17
ENDBRANCH  15  16
ENDBRANCH  14  15
ENDBRANCH  12  14
ENDBRANCH   1  12
TORSDOF 14
ENDMDL
MODEL 4
REMARK VINA RESULT:    -8.707      3.192      8.976
REMARK INTER + INTRA:         -18.198
REMARK INTER:                 -15.984
REMARK INTRA:                  -2.214
REMARK UNBOUND:                -2.366
REMARK SMILES CC(=O)Oc1c(C)c(C)c2c(c1C)CC[C@@](C)(CCC[C@H](C)CCC[C@H](C)CCCC(C)C)O2
REMARK SMILES IDX 23 1 24 2 25 3 26 4 27 5 28 6 29 7 30 8 31 9 32 10 33 11
REMARK SMILES IDX 21 12 22 13 20 14 19 15 18 16 16 17 17 18 15 19 34 20 14 21
REMARK SMILES IDX 10 22 11 23 8 24 12 25 6 26 9 27 13 28 5 29 7 30 4 31 2 32
REMARK SMILES IDX 1 33 3 34
REMARK H PARENT
REMARK Flexibility Score: inf
ROOT
ATOM      1  C   UNL     1      13.581  80.146  -5.051  1.00  0.00     0.003 C 
ENDROOT
BRANCH   1   2
ATOM      2  C   UNL     1      14.923  80.839  -5.364  1.00  0.00     0.001 C 
BRANCH   2   3
ATOM      3  C   UNL     1      16.052  79.846  -5.700  1.00  0.00     0.003 C 
BRANCH   3   4
ATOM      4  C   UNL     1      16.670  80.087  -7.098  1.00  0.00    -0.014 C 
ATOM      5  C   UNL     1      17.636  78.946  -7.457  1.00  0.00     0.007 C 
BRANCH   4   6
ATOM      6  C   UNL     1      17.348  81.472  -7.274  1.00  0.00     0.003 C 
BRANCH   6   7
ATOM      7  C   UNL     1      18.857  81.416  -7.596  1.00  0.00     0.001 C 
BRANCH   7   8
ATOM      8  C   UNL     1      19.688  82.240  -6.583  1.00  0.00     0.003 C 
BRANCH   8   9
ATOM      9  C   UNL     1      19.456  81.818  -5.111  1.00  0.00    -0.017 C 
ATOM     10  C   UNL     1      20.360  82.640  -4.180  1.00  0.00     0.007 C 
ATOM     11  C   UNL     1      19.700  80.321  -4.890  1.00  0.00     0.007 C 
ENDBRANCH   8   9
ENDBRANCH   7   8
ENDBRANCH   6   7
ENDBRANCH   4   6
ENDBRANCH   3   4
ENDBRANCH   2   3
ENDBRANCH   1   2
BRANCH   1  12
ATOM     12  C   UNL     1      13.431  79.567  -3.618  1.00  0.00    -0.014 C 
ATOM     13  C   UNL     1      13.089  78.068  -3.724  1.00  0.00     0.007 C 
BRANCH  12  14
ATOM     14  C   UNL     1      14.715  79.774  -2.774  1.00  0.00     0.003 C 
BRANCH  14  15
ATOM     15  C   UNL     1      14.534  80.792  -1.620  1.00  0.00     0.004 C 
BRANCH  15  16
ATOM     16  C   UNL     1      14.647  80.180  -0.202  1.00  0.00     0.048 C 
BRANCH  16  17
ATOM     17  C   UNL     1      13.492  79.245   0.291  1.00  0.00     0.107 C 
ATOM     18  C   UNL     1      13.188  79.441   1.794  1.00  0.00     0.056 C 
ATOM     19  C   UNL     1      13.802  77.758  -0.016  1.00  0.00     0.053 C 
ATOM     20  O   UNL     1      12.327  79.631  -0.443  1.00  0.00    -0.487 OA
ATOM     21  C   UNL     1      12.579  76.851   0.174  1.00  0.00     0.044 C 
ATOM     22  C   UNL     1      11.228  78.796  -0.692  1.00  0.00     0.127 A 
ATOM     23  C   UNL     1      11.313  77.416  -0.433  1.00  0.00     0.001 A 
ATOM     24  C   UNL     1      10.048  79.357  -1.214  1.00  0.00    -0.002 A 
ATOM     25  C   UNL     1      10.185  76.591  -0.656  1.00  0.00    -0.001 A 
ATOM     26  C   UNL     1       8.959  78.515  -1.547  1.00  0.00    -0.001 A 
ATOM     27  C   UNL     1       9.971  80.847  -1.456  1.00  0.00     0.049 C 
ATOM     28  C   UNL     1      10.232  75.118  -0.314  1.00  0.00     0.049 C 
ATOM     29  C   UNL     1       9.018  77.143  -1.224  1.00  0.00     0.137 A 
ATOM     30  C   UNL     1       7.706  79.079  -2.179  1.00  0.00     0.049 C 
BRANCH  29  31
ATOM     31  O   UNL     1       7.913  76.317  -1.473  1.00  0.00    -0.426 OA
BRANCH  31  32
ATOM     32  C   UNL     1       7.102  75.820  -0.444  1.00  0.00     0.308 C 
ATOM     33  C   UNL     1       6.488  76.765   0.530  1.00  0.00     0.139 C 
ATOM     34  O   UNL     1       6.905  74.580  -0.321  1.00  0.00    -0.252 OA
ENDBRANCH  31  32
ENDBRANCH  29  31
ENDBRANCH  16  17
ENDBRANCH  15  16
ENDBRANCH  14  15
ENDBRANCH  12  14
ENDBRANCH   1  12
TORSDOF 14
ENDMDL
MODEL 5
REMARK VINA RESULT:    -8.567      3.043      7.780
REMARK INTER + INTRA:         -17.945
REMARK INTER:                 -15.984
REMARK INTRA:                  -1.961
REMARK UNBOUND:                -2.366
REMARK SMILES CC(=O)Oc1c(C)c(C)c2c(c1C)CC[C@@](C)(CCC[C@H](C)CCC[C@H](C)CCCC(C)C)O2
REMARK SMILES IDX 23 1 24 2 25 3 26 4 27 5 28 6 29 7 30 8 31 9 32 10 33 11
REMARK SMILES IDX 21 12 22 13 20 14 19 15 18 16 16 17 17 18 15 19 34 20 14 21
REMARK SMILES IDX 10 22 11 23 8 24 12 25 6 26 9 27 13 28 5 29 7 30 4 31 2 32
REMARK SMILES IDX 1 33 3 34
REMARK H PARENT
REMARK Flexibility Score: inf
ROOT
ATOM      1  C   UNL     1      11.192  78.907  -2.262  1.00  0.00     0.003 C 
ENDROOT
BRANCH   1   2
ATOM      2  C   UNL     1      12.290  79.690  -3.010  1.00  0.00     0.001 C 
BRANCH   2   3
ATOM      3  C   UNL     1      13.303  78.777  -3.726  1.00  0.00     0.003 C 
BRANCH   3   4
ATOM      4  C   UNL     1      13.633  79.251  -5.161  1.00  0.00    -0.014 C 
ATOM      5  C   UNL     1      14.240  78.098  -5.977  1.00  0.00     0.007 C 
BRANCH   4   6
ATOM      6  C   UNL     1      14.524  80.519  -5.234  1.00  0.00     0.003 C 
BRANCH   6   7
ATOM      7  C   UNL     1      15.893  80.388  -4.530  1.00  0.00     0.001 C 
BRANCH   7   8
ATOM      8  C   UNL     1      17.056  80.811  -5.460  1.00  0.00     0.003 C 
BRANCH   8   9
ATOM      9  C   UNL     1      16.831  80.421  -6.941  1.00  0.00    -0.017 C 
ATOM     10  C   UNL     1      17.601  79.132  -7.269  1.00  0.00     0.007 C 
ATOM     11  C   UNL     1      17.244  81.538  -7.906  1.00  0.00     0.007 C 
ENDBRANCH   8   9
ENDBRANCH   7   8
ENDBRANCH   6   7
ENDBRANCH   4   6
ENDBRANCH   3   4
ENDBRANCH   2   3
ENDBRANCH   1   2
BRANCH   1  12
ATOM     12  C   UNL     1      10.337  79.724  -1.256  1.00  0.00    -0.014 C 
ATOM     13  C   UNL     1      11.170  80.918  -0.754  1.00  0.00     0.007 C 
BRANCH  12  14
ATOM     14  C   UNL     1       9.011  80.215  -1.892  1.00  0.00     0.003 C 
BRANCH  14  15
ATOM     15  C   UNL     1       7.877  79.160  -1.839  1.00  0.00     0.004 C 
BRANCH  15  16
ATOM     16  C   UNL     1       7.761  78.410  -0.489  1.00  0.00     0.048 C 
BRANCH  16  17
ATOM     17  C   UNL     1       7.926  76.852  -0.496  1.00  0.00     0.107 C 
ATOM     18  C   UNL     1       6.833  76.150   0.341  1.00  0.00     0.056 C 
ATOM     19  C   UNL     1       9.339  76.434  -0.014  1.00  0.00     0.053 C 
ATOM     20  O   UNL     1       7.766  76.441  -1.856  1.00  0.00    -0.487 OA
ATOM     21  C   UNL     1       9.640  74.956  -0.289  1.00  0.00     0.044 C 
ATOM     22  C   UNL     1       8.295  75.262  -2.400  1.00  0.00     0.127 A 
ATOM     23  C   UNL     1       9.243  74.511  -1.680  1.00  0.00     0.001 A 
ATOM     24  C   UNL     1       7.872  74.849  -3.678  1.00  0.00    -0.002 A 
ATOM     25  C   UNL     1       9.741  73.305  -2.226  1.00  0.00    -0.001 A 
ATOM     26  C   UNL     1       8.457  73.705  -4.273  1.00  0.00    -0.001 A 
ATOM     27  C   UNL     1       6.831  75.657  -4.418  1.00  0.00     0.049 C 
ATOM     28  C   UNL     1      10.704  72.446  -1.437  1.00  0.00     0.049 C 
ATOM     29  C   UNL     1       9.355  72.914  -3.526  1.00  0.00     0.137 A 
ATOM     30  C   UNL     1       8.078  73.280  -5.675  1.00  0.00     0.049 C 
BRANCH  29  31
ATOM     31  O   UNL     1       9.875  71.736  -4.077  1.00  0.00    -0.426 OA
BRANCH  31  32
ATOM     32  C   UNL     1      10.773  71.742  -5.152  1.00  0.00     0.308 C 
ATOM     33  C   UNL     1      11.999  72.586  -5.081  1.00  0.00     0.139 C 
ATOM     34  O   UNL     1      10.543  71.061  -6.188  1.00  0.00    -0.252 OA
ENDBRANCH  31  32
ENDBRANCH  29  31
ENDBRANCH  16  17
ENDBRANCH  15  16
ENDBRANCH  14  15
ENDBRANCH  12  14
ENDBRANCH   1  12
TORSDOF 14
ENDMDL
MODEL 6
REMARK VINA RESULT:    -8.488      2.171      4.614
REMARK INTER + INTRA:         -17.802
REMARK INTER:                 -15.634
REMARK INTRA:                  -2.168
REMARK UNBOUND:                -2.366
REMARK SMILES CC(=O)Oc1c(C)c(C)c2c(c1C)CC[C@@](C)(CCC[C@H](C)CCC[C@H](C)CCCC(C)C)O2
REMARK SMILES IDX 23 1 24 2 25 3 26 4 27 5 28 6 29 7 30 8 31 9 32 10 33 11
REMARK SMILES IDX 21 12 22 13 20 14 19 15 18 16 16 17 17 18 15 19 34 20 14 21
REMARK SMILES IDX 10 22 11 23 8 24 12 25 6 26 9 27 13 28 5 29 7 30 4 31 2 32
REMARK SMILES IDX 1 33 3 34
REMARK H PARENT
REMARK Flexibility Score: inf
ROOT
ATOM      1  C   UNL     1       8.348  78.249  -1.816  1.00  0.00     0.003 C 
ENDROOT
BRANCH   1   2
ATOM      2  C   UNL     1       8.273  77.140  -2.884  1.00  0.00     0.001 C 
BRANCH   2   3
ATOM      3  C   UNL     1       9.280  76.000  -2.644  1.00  0.00     0.003 C 
BRANCH   3   4
ATOM      4  C   UNL     1       8.773  74.630  -3.152  1.00  0.00    -0.014 C 
ATOM      5  C   UNL     1       7.293  74.727  -3.557  1.00  0.00     0.007 C 
BRANCH   4   6
ATOM      6  C   UNL     1       9.009  73.450  -2.172  1.00  0.00     0.003 C 
BRANCH   6   7
ATOM      7  C   UNL     1      10.281  72.621  -2.453  1.00  0.00     0.001 C 
BRANCH   7   8
ATOM      8  C   UNL     1       9.976  71.390  -3.340  1.00  0.00     0.003 C 
BRANCH   8   9
ATOM      9  C   UNL     1      10.411  71.571  -4.815  1.00  0.00    -0.017 C 
ATOM     10  C   UNL     1      11.567  72.580  -4.902  1.00  0.00     0.007 C 
ATOM     11  C   UNL     1       9.254  72.022  -5.712  1.00  0.00     0.007 C 
ENDBRANCH   8   9
ENDBRANCH   7   8
ENDBRANCH   6   7
ENDBRANCH   4   6
ENDBRANCH   3   4
ENDBRANCH   2   3
ENDBRANCH   1   2
BRANCH   1  12
ATOM     12  C   UNL     1       9.059  79.562  -2.245  1.00  0.00    -0.014 C 
ATOM     13  C   UNL     1       8.022  80.701  -2.266  1.00  0.00     0.007 C 
BRANCH  12  14
ATOM     14  C   UNL     1      10.237  79.915  -1.301  1.00  0.00     0.003 C 
BRANCH  14  15
ATOM     15  C   UNL     1      10.850  78.680  -0.596  1.00  0.00     0.004 C 
BRANCH  15  16
ATOM     16  C   UNL     1      12.171  78.964   0.163  1.00  0.00     0.048 C 
BRANCH  16  17
ATOM     17  C   UNL     1      13.489  79.087  -0.674  1.00  0.00     0.107 C 
ATOM     18  C   UNL     1      14.649  78.279  -0.050  1.00  0.00     0.056 C 
ATOM     19  C   UNL     1      13.896  80.569  -0.869  1.00  0.00     0.053 C 
ATOM     20  O   UNL     1      13.202  78.519  -1.955  1.00  0.00    -0.487 OA
ATOM     21  C   UNL     1      14.997  80.743  -1.923  1.00  0.00     0.044 C 
ATOM     22  C   UNL     1      13.883  78.836  -3.139  1.00  0.00     0.127 A 
ATOM     23  C   UNL     1      14.755  79.939  -3.182  1.00  0.00     0.001 A 
ATOM     24  C   UNL     1      13.672  78.042  -4.282  1.00  0.00    -0.002 A 
ATOM     25  C   UNL     1      15.462  80.226  -4.373  1.00  0.00    -0.001 A 
ATOM     26  C   UNL     1      14.290  78.398  -5.506  1.00  0.00    -0.001 A 
ATOM     27  C   UNL     1      12.753  76.844  -4.202  1.00  0.00     0.049 C 
ATOM     28  C   UNL     1      16.459  81.362  -4.418  1.00  0.00     0.049 C 
ATOM     29  C   UNL     1      15.216  79.461  -5.533  1.00  0.00     0.137 A 
ATOM     30  C   UNL     1      14.023  77.608  -6.768  1.00  0.00     0.049 C 
BRANCH  29  31
ATOM     31  O   UNL     1      15.895  79.767  -6.720  1.00  0.00    -0.426 OA
BRANCH  31  32
ATOM     32  C   UNL     1      17.174  79.270  -7.002  1.00  0.00     0.308 C 
ATOM     33  C   UNL     1      18.320  80.215  -7.124  1.00  0.00     0.139 C 
ATOM     34  O   UNL     1      17.362  78.035  -7.179  1.00  0.00    -0.252 OA
ENDBRANCH  31  32
ENDBRANCH  29  31
ENDBRANCH  16  17
ENDBRANCH  15  16
ENDBRANCH  14  15
ENDBRANCH  12  14
ENDBRANCH   1  12
TORSDOF 14
ENDMDL
MODEL 7
REMARK VINA RESULT:    -8.383      2.608      8.017
REMARK INTER + INTRA:         -17.610
REMARK INTER:                 -15.066
REMARK INTRA:                  -2.544
REMARK UNBOUND:                -2.366
REMARK SMILES CC(=O)Oc1c(C)c(C)c2c(c1C)CC[C@@](C)(CCC[C@H](C)CCC[C@H](C)CCCC(C)C)O2
REMARK SMILES IDX 23 1 24 2 25 3 26 4 27 5 28 6 29 7 30 8 31 9 32 10 33 11
REMARK SMILES IDX 21 12 22 13 20 14 19 15 18 16 16 17 17 18 15 19 34 20 14 21
REMARK SMILES IDX 10 22 11 23 8 24 12 25 6 26 9 27 13 28 5 29 7 30 4 31 2 32
REMARK SMILES IDX 1 33 3 34
REMARK H PARENT
REMARK Flexibility Score: inf
ROOT
ATOM      1  C   UNL     1      15.006  78.958  -1.395  1.00  0.00     0.003 C 
ENDROOT
BRANCH   1   2
ATOM      2  C   UNL     1      14.676  78.954  -2.902  1.00  0.00     0.001 C 
BRANCH   2   3
ATOM      3  C   UNL     1      13.790  80.139  -3.330  1.00  0.00     0.003 C 
BRANCH   3   4
ATOM      4  C   UNL     1      13.623  80.244  -4.864  1.00  0.00    -0.014 C 
ATOM      5  C   UNL     1      14.053  78.930  -5.537  1.00  0.00     0.007 C 
BRANCH   4   6
ATOM      6  C   UNL     1      14.335  81.463  -5.509  1.00  0.00     0.003 C 
BRANCH   6   7
ATOM      7  C   UNL     1      15.868  81.327  -5.630  1.00  0.00     0.001 C 
BRANCH   7   8
ATOM      8  C   UNL     1      16.355  81.614  -7.071  1.00  0.00     0.003 C 
BRANCH   8   9
ATOM      9  C   UNL     1      17.497  80.675  -7.533  1.00  0.00    -0.017 C 
ATOM     10  C   UNL     1      17.794  79.634  -6.443  1.00  0.00     0.007 C 
ATOM     11  C   UNL     1      18.775  81.444  -7.886  1.00  0.00     0.007 C 
ENDBRANCH   8   9
ENDBRANCH   7   8
ENDBRANCH   6   7
ENDBRANCH   4   6
ENDBRANCH   3   4
ENDBRANCH   2   3
ENDBRANCH   1   2
BRANCH   1  12
ATOM     12  C   UNL     1      13.798  79.122  -0.433  1.00  0.00    -0.014 C 
ATOM     13  C   UNL     1      13.812  77.962   0.580  1.00  0.00     0.007 C 
BRANCH  12  14
ATOM     14  C   UNL     1      13.826  80.487   0.302  1.00  0.00     0.003 C 
BRANCH  14  15
ATOM     15  C   UNL     1      12.418  81.088   0.536  1.00  0.00     0.004 C 
BRANCH  15  16
ATOM     16  C   UNL     1      11.666  81.484  -0.759  1.00  0.00     0.048 C 
BRANCH  16  17
ATOM     17  C   UNL     1      10.344  80.720  -1.106  1.00  0.00     0.107 C 
ATOM     18  C   UNL     1       9.565  81.401  -2.254  1.00  0.00     0.056 C 
ATOM     19  C   UNL     1       9.445  80.554   0.145  1.00  0.00     0.053 C 
ATOM     20  O   UNL     1      10.742  79.423  -1.560  1.00  0.00    -0.487 OA
ATOM     21  C   UNL     1       8.298  79.561  -0.083  1.00  0.00     0.044 C 
ATOM     22  C   UNL     1       9.933  78.278  -1.511  1.00  0.00     0.127 A 
ATOM     23  C   UNL     1       8.735  78.287  -0.773  1.00  0.00     0.001 A 
ATOM     24  C   UNL     1      10.343  77.122  -2.201  1.00  0.00    -0.002 A 
ATOM     25  C   UNL     1       7.912  77.137  -0.762  1.00  0.00    -0.001 A 
ATOM     26  C   UNL     1       9.578  75.935  -2.094  1.00  0.00    -0.001 A 
ATOM     27  C   UNL     1      11.619  77.147  -3.011  1.00  0.00     0.049 C 
ATOM     28  C   UNL     1       6.585  77.150  -0.036  1.00  0.00     0.049 C 
ATOM     29  C   UNL     1       8.344  75.962  -1.412  1.00  0.00     0.137 A 
ATOM     30  C   UNL     1      10.033  74.657  -2.763  1.00  0.00     0.049 C 
BRANCH  29  31
ATOM     31  O   UNL     1       7.541  74.815  -1.373  1.00  0.00    -0.426 OA
BRANCH  31  32
ATOM     32  C   UNL     1       6.379  74.685  -2.147  1.00  0.00     0.308 C 
ATOM     33  C   UNL     1       6.462  74.834  -3.627  1.00  0.00     0.139 C 
ATOM     34  O   UNL     1       5.263  74.467  -1.603  1.00  0.00    -0.252 OA
ENDBRANCH  31  32
ENDBRANCH  29  31
ENDBRANCH  16  17
ENDBRANCH  15  16
ENDBRANCH  14  15
ENDBRANCH  12  14
ENDBRANCH   1  12
TORSDOF 14
ENDMDL
MODEL 8
REMARK VINA RESULT:    -8.364      3.065      8.617
REMARK INTER + INTRA:         -17.576
REMARK INTER:                 -14.831
REMARK INTRA:                  -2.746
REMARK UNBOUND:                -2.366
REMARK SMILES CC(=O)Oc1c(C)c(C)c2c(c1C)CC[C@@](C)(CCC[C@H](C)CCC[C@H](C)CCCC(C)C)O2
REMARK SMILES IDX 23 1 24 2 25 3 26 4 27 5 28 6 29 7 30 8 31 9 32 10 33 11
REMARK SMILES IDX 21 12 22 13 20 14 19 15 18 16 16 17 17 18 15 19 34 20 14 21
REMARK SMILES IDX 10 22 11 23 8 24 12 25 6 26 9 27 13 28 5 29 7 30 4 31 2 32
REMARK SMILES IDX 1 33 3 34
REMARK H PARENT
REMARK Flexibility Score: inf
ROOT
ATOM      1  C   UNL     1      13.141  80.380  -4.595  1.00  0.00     0.003 C 
ENDROOT
BRANCH   1   2
ATOM      2  C   UNL     1      14.378  81.230  -4.950  1.00  0.00     0.001 C 
BRANCH   2   3
ATOM      3  C   UNL     1      14.928  80.937  -6.359  1.00  0.00     0.003 C 
BRANCH   3   4
ATOM      4  C   UNL     1      16.071  79.894  -6.356  1.00  0.00    -0.014 C 
ATOM      5  C   UNL     1      15.492  78.470  -6.366  1.00  0.00     0.007 C 
BRANCH   4   6
ATOM      6  C   UNL     1      17.103  80.072  -5.211  1.00  0.00     0.003 C 
BRANCH   6   7
ATOM      7  C   UNL     1      18.446  80.700  -5.643  1.00  0.00     0.001 C 
BRANCH   7   8
ATOM      8  C   UNL     1      18.743  80.440  -7.139  1.00  0.00     0.003 C 
BRANCH   8   9
ATOM      9  C   UNL     1      18.954  81.737  -7.958  1.00  0.00    -0.017 C 
ATOM     10  C   UNL     1      19.933  82.668  -7.227  1.00  0.00     0.007 C 
ATOM     11  C   UNL     1      17.637  82.473  -8.232  1.00  0.00     0.007 C 
ENDBRANCH   8   9
ENDBRANCH   7   8
ENDBRANCH   6   7
ENDBRANCH   4   6
ENDBRANCH   3   4
ENDBRANCH   2   3
ENDBRANCH   1   2
BRANCH   1  12
ATOM     12  C   UNL     1      13.268  79.486  -3.332  1.00  0.00    -0.014 C 
ATOM     13  C   UNL     1      13.102  78.013  -3.751  1.00  0.00     0.007 C 
BRANCH  12  14
ATOM     14  C   UNL     1      14.622  79.697  -2.609  1.00  0.00     0.003 C 
BRANCH  14  15
ATOM     15  C   UNL     1      14.544  80.712  -1.441  1.00  0.00     0.004 C 
BRANCH  15  16
ATOM     16  C   UNL     1      14.624  80.076  -0.031  1.00  0.00     0.048 C 
BRANCH  16  17
ATOM     17  C   UNL     1      13.467  79.117   0.411  1.00  0.00     0.107 C 
ATOM     18  C   UNL     1      13.119  79.281   1.908  1.00  0.00     0.056 C 
ATOM     19  C   UNL     1      13.805  77.640   0.084  1.00  0.00     0.053 C 
ATOM     20  O   UNL     1      12.318  79.503  -0.348  1.00  0.00    -0.487 OA
ATOM     21  C   UNL     1      12.588  76.715   0.222  1.00  0.00     0.044 C 
ATOM     22  C   UNL     1      11.238  78.660  -0.645  1.00  0.00     0.127 A 
ATOM     23  C   UNL     1      11.333  77.276  -0.410  1.00  0.00     0.001 A 
ATOM     24  C   UNL     1      10.066  79.217  -1.190  1.00  0.00    -0.002 A 
ATOM     25  C   UNL     1      10.222  76.443  -0.680  1.00  0.00    -0.001 A 
ATOM     26  C   UNL     1       8.997  78.368  -1.569  1.00  0.00    -0.001 A 
ATOM     27  C   UNL     1       9.977  80.711  -1.405  1.00  0.00     0.049 C 
ATOM     28  C   UNL     1      10.278  74.964  -0.365  1.00  0.00     0.049 C 
ATOM     29  C   UNL     1       9.064  76.991  -1.270  1.00  0.00     0.137 A 
ATOM     30  C   UNL     1       7.756  78.930  -2.225  1.00  0.00     0.049 C 
BRANCH  29  31
ATOM     31  O   UNL     1       7.978  76.158  -1.566  1.00  0.00    -0.426 OA
BRANCH  31  32
ATOM     32  C   UNL     1       7.110  75.676  -0.577  1.00  0.00     0.308 C 
ATOM     33  C   UNL     1       6.627  76.599   0.489  1.00  0.00     0.139 C 
ATOM     34  O   UNL     1       6.754  74.467  -0.564  1.00  0.00    -0.252 OA
ENDBRANCH  31  32
ENDBRANCH  29  31
ENDBRANCH  16  17
ENDBRANCH  15  16
ENDBRANCH  14  15
ENDBRANCH  12  14
ENDBRANCH   1  12
TORSDOF 14
ENDMDL
MODEL 9
REMARK VINA RESULT:    -8.333      2.017      5.801
REMARK INTER + INTRA:         -17.520
REMARK INTER:                 -14.776
REMARK INTRA:                  -2.744
REMARK UNBOUND:                -2.366
REMARK SMILES CC(=O)Oc1c(C)c(C)c2c(c1C)CC[C@@](C)(CCC[C@H](C)CCC[C@H](C)CCCC(C)C)O2
REMARK SMILES IDX 23 1 24 2 25 3 26 4 27 5 28 6 29 7 30 8 31 9 32 10 33 11
REMARK SMILES IDX 21 12 22 13 20 14 19 15 18 16 16 17 17 18 15 19 34 20 14 21
REMARK SMILES IDX 10 22 11 23 8 24 12 25 6 26 9 27 13 28 5 29 7 30 4 31 2 32
REMARK SMILES IDX 1 33 3 34
REMARK H PARENT
REMARK Flexibility Score: inf
ROOT
ATOM      1  C   UNL     1       7.977  74.691  -3.395  1.00  0.00     0.003 C 
ENDROOT
BRANCH   1   2
ATOM      2  C   UNL     1       6.865  75.340  -2.547  1.00  0.00     0.001 C 
BRANCH   2   3
ATOM      3  C   UNL     1       6.452  74.484  -1.335  1.00  0.00     0.003 C 
BRANCH   3   4
ATOM      4  C   UNL     1       6.572  75.243   0.008  1.00  0.00    -0.014 C 
ATOM      5  C   UNL     1       5.220  75.245   0.741  1.00  0.00     0.007 C 
BRANCH   4   6
ATOM      6  C   UNL     1       7.147  76.679  -0.111  1.00  0.00     0.003 C 
BRANCH   6   7
ATOM      7  C   UNL     1       6.405  77.744   0.725  1.00  0.00     0.001 C 
BRANCH   7   8
ATOM      8  C   UNL     1       6.627  79.169   0.162  1.00  0.00     0.003 C 
BRANCH   8   9
ATOM      9  C   UNL     1       7.879  79.285  -0.741  1.00  0.00    -0.017 C 
ATOM     10  C   UNL     1       8.962  80.115  -0.034  1.00  0.00     0.007 C 
ATOM     11  C   UNL     1       7.557  79.900  -2.107  1.00  0.00     0.007 C 
ENDBRANCH   8   9
ENDBRANCH   7   8
ENDBRANCH   6   7
ENDBRANCH   4   6
ENDBRANCH   3   4
ENDBRANCH   2   3
ENDBRANCH   1   2
BRANCH   1  12
ATOM     12  C   UNL     1       9.074  73.922  -2.609  1.00  0.00    -0.014 C 
ATOM     13  C   UNL     1       9.748  72.914  -3.558  1.00  0.00     0.007 C 
BRANCH  12  14
ATOM     14  C   UNL     1      10.126  74.882  -1.997  1.00  0.00     0.003 C 
BRANCH  14  15
ATOM     15  C   UNL     1      10.470  76.082  -2.914  1.00  0.00     0.004 C 
BRANCH  15  16
ATOM     16  C   UNL     1      10.541  77.446  -2.185  1.00  0.00     0.048 C 
BRANCH  16  17
ATOM     17  C   UNL     1      11.822  78.324  -2.388  1.00  0.00     0.107 C 
ATOM     18  C   UNL     1      12.754  78.283  -1.156  1.00  0.00     0.056 C 
ATOM     19  C   UNL     1      11.452  79.785  -2.748  1.00  0.00     0.053 C 
ATOM     20  O   UNL     1      12.530  77.746  -3.488  1.00  0.00    -0.487 OA
ATOM     21  C   UNL     1      12.659  80.591  -3.245  1.00  0.00     0.044 C 
ATOM     22  C   UNL     1      13.428  78.440  -4.312  1.00  0.00     0.127 A 
ATOM     23  C   UNL     1      13.508  79.844  -4.250  1.00  0.00     0.001 A 
ATOM     24  C   UNL     1      14.238  77.714  -5.205  1.00  0.00    -0.002 A 
ATOM     25  C   UNL     1      14.444  80.528  -5.061  1.00  0.00    -0.001 A 
ATOM     26  C   UNL     1      15.092  78.406  -6.098  1.00  0.00    -0.001 A 
ATOM     27  C   UNL     1      14.156  76.205  -5.231  1.00  0.00     0.049 C 
ATOM     28  C   UNL     1      14.597  82.029  -4.956  1.00  0.00     0.049 C 
ATOM     29  C   UNL     1      15.222  79.807  -5.990  1.00  0.00     0.137 A 
ATOM     30  C   UNL     1      15.917  77.656  -7.120  1.00  0.00     0.049 C 
BRANCH  29  31
ATOM     31  O   UNL     1      16.126  80.490  -6.814  1.00  0.00    -0.426 OA
BRANCH  31  32
ATOM     32  C   UNL     1      17.478  80.645  -6.478  1.00  0.00     0.308 C 
ATOM     33  C   UNL     1      18.490  80.800  -7.561  1.00  0.00     0.139 C 
ATOM     34  O   UNL     1      17.849  80.630  -5.274  1.00  0.00    -0.252 OA
ENDBRANCH  31  32
ENDBRANCH  29  31
ENDBRANCH  16  17
ENDBRANCH  15  16
ENDBRANCH  14  15
ENDBRANCH  12  14
ENDBRANCH   1  12
TORSDOF 14
ENDMDL
MODEL 10
REMARK VINA RESULT:    -7.996      2.132      6.315
REMARK INTER + INTRA:         -16.906
REMARK INTER:                 -14.327
REMARK INTRA:                  -2.579
REMARK UNBOUND:                -2.366
REMARK SMILES CC(=O)Oc1c(C)c(C)c2c(c1C)CC[C@@](C)(CCC[C@H](C)CCC[C@H](C)CCCC(C)C)O2
REMARK SMILES IDX 23 1 24 2 25 3 26 4 27 5 28 6 29 7 30 8 31 9 32 10 33 11
REMARK SMILES IDX 21 12 22 13 20 14 19 15 18 16 16 17 17 18 15 19 34 20 14 21
REMARK SMILES IDX 10 22 11 23 8 24 12 25 6 26 9 27 13 28 5 29 7 30 4 31 2 32
REMARK SMILES IDX 1 33 3 34
REMARK H PARENT
REMARK Flexibility Score: inf
ROOT
ATOM      1  C   UNL     1       7.527  75.252  -1.320  1.00  0.00     0.003 C 
ENDROOT
BRANCH   1   2
ATOM      2  C   UNL     1       7.828  76.152  -0.104  1.00  0.00     0.001 C 
BRANCH   2   3
ATOM      3  C   UNL     1       6.601  76.950   0.377  1.00  0.00     0.003 C 
BRANCH   3   4
ATOM      4  C   UNL     1       6.874  78.469   0.484  1.00  0.00    -0.014 C 
ATOM      5  C   UNL     1       5.580  79.219   0.839  1.00  0.00     0.007 C 
BRANCH   4   6
ATOM      6  C   UNL     1       7.560  79.091  -0.761  1.00  0.00     0.003 C 
BRANCH   6   7
ATOM      7  C   UNL     1       8.388  80.363  -0.475  1.00  0.00     0.001 C 
BRANCH   7   8
ATOM      8  C   UNL     1       9.760  80.020   0.154  1.00  0.00     0.003 C 
BRANCH   8   9
ATOM      9  C   UNL     1      10.467  81.243   0.790  1.00  0.00    -0.017 C 
ATOM     10  C   UNL     1      11.188  82.057  -0.296  1.00  0.00     0.007 C 
ATOM     11  C   UNL     1      11.459  80.837   1.885  1.00  0.00     0.007 C 
ENDBRANCH   8   9
ENDBRANCH   7   8
ENDBRANCH   6   7
ENDBRANCH   4   6
ENDBRANCH   3   4
ENDBRANCH   2   3
ENDBRANCH   1   2
BRANCH   1  12
ATOM     12  C   UNL     1       8.713  74.401  -1.849  1.00  0.00    -0.014 C 
ATOM     13  C   UNL     1       8.528  74.183  -3.363  1.00  0.00     0.007 C 
BRANCH  12  14
ATOM     14  C   UNL     1      10.080  75.072  -1.558  1.00  0.00     0.003 C 
BRANCH  14  15
ATOM     15  C   UNL     1      10.584  75.968  -2.718  1.00  0.00     0.004 C 
BRANCH  15  16
ATOM     16  C   UNL     1      10.463  77.489  -2.452  1.00  0.00     0.048 C 
BRANCH  16  17
ATOM     17  C   UNL     1      11.751  78.367  -2.600  1.00  0.00     0.107 C 
ATOM     18  C   UNL     1      12.623  78.337  -1.325  1.00  0.00     0.056 C 
ATOM     19  C   UNL     1      11.396  79.826  -2.987  1.00  0.00     0.053 C 
ATOM     20  O   UNL     1      12.510  77.784  -3.662  1.00  0.00    -0.487 OA
ATOM     21  C   UNL     1      12.624  80.631  -3.432  1.00  0.00     0.044 C 
ATOM     22  C   UNL     1      13.446  78.473  -4.446  1.00  0.00     0.127 A 
ATOM     23  C   UNL     1      13.520  79.878  -4.391  1.00  0.00     0.001 A 
ATOM     24  C   UNL     1      14.298  77.742  -5.295  1.00  0.00    -0.002 A 
ATOM     25  C   UNL     1      14.493  80.558  -5.161  1.00  0.00    -0.001 A 
ATOM     26  C   UNL     1      15.192  78.430  -6.152  1.00  0.00    -0.001 A 
ATOM     27  C   UNL     1      14.219  76.233  -5.314  1.00  0.00     0.049 C 
ATOM     28  C   UNL     1      14.638  82.060  -5.059  1.00  0.00     0.049 C 
ATOM     29  C   UNL     1      15.315  79.831  -6.047  1.00  0.00     0.137 A 
ATOM     30  C   UNL     1      16.066  77.675  -7.128  1.00  0.00     0.049 C 
BRANCH  29  31
ATOM     31  O   UNL     1      16.256  80.511  -6.832  1.00  0.00    -0.426 OA
BRANCH  31  32
ATOM     32  C   UNL     1      17.569  80.742  -6.398  1.00  0.00     0.308 C 
ATOM     33  C   UNL     1      18.463  81.624  -7.200  1.00  0.00     0.139 C 
ATOM     34  O   UNL     1      18.008  80.193  -5.351  1.00  0.00    -0.252 OA
ENDBRANCH  31  32
ENDBRANCH  29  31
ENDBRANCH  16  17
ENDBRANCH  15  16
ENDBRANCH  14  15
ENDBRANCH  12  14
ENDBRANCH   1  12
TORSDOF 14
ENDMDL
MODEL 11
REMARK VINA RESULT:    -7.968      2.756      7.281
REMARK INTER + INTRA:         -16.856
REMARK INTER:                 -14.148
REMARK INTRA:                  -2.707
REMARK UNBOUND:                -2.366
REMARK SMILES CC(=O)Oc1c(C)c(C)c2c(c1C)CC[C@@](C)(CCC[C@H](C)CCC[C@H](C)CCCC(C)C)O2
REMARK SMILES IDX 23 1 24 2 25 3 26 4 27 5 28 6 29 7 30 8 31 9 32 10 33 11
REMARK SMILES IDX 21 12 22 13 20 14 19 15 18 16 16 17 17 18 15 19 34 20 14 21
REMARK SMILES IDX 10 22 11 23 8 24 12 25 6 26 9 27 13 28 5 29 7 30 4 31 2 32
REMARK SMILES IDX 1 33 3 34
REMARK H PARENT
REMARK Flexibility Score: inf
ROOT
ATOM      1  C   UNL     1      10.180  80.290   0.163  1.00  0.00     0.003 C 
ENDROOT
BRANCH   1   2
ATOM      2  C   UNL     1      11.372  81.220   0.467  1.00  0.00     0.001 C 
BRANCH   2   3
ATOM      3  C   UNL     1      12.531  80.502   1.185  1.00  0.00     0.003 C 
BRANCH   3   4
ATOM      4  C   UNL     1      13.295  79.521   0.266  1.00  0.00    -0.014 C 
ATOM      5  C   UNL     1      13.891  78.371   1.093  1.00  0.00     0.007 C 
BRANCH   4   6
ATOM      6  C   UNL     1      14.374  80.184  -0.632  1.00  0.00     0.003 C 
BRANCH   6   7
ATOM      7  C   UNL     1      14.652  79.448  -1.960  1.00  0.00     0.001 C 
BRANCH   7   8
ATOM      8  C   UNL     1      13.739  79.962  -3.099  1.00  0.00     0.003 C 
BRANCH   8   9
ATOM      9  C   UNL     1      12.938  78.837  -3.801  1.00  0.00    -0.017 C 
ATOM     10  C   UNL     1      12.189  77.995  -2.757  1.00  0.00     0.007 C 
ATOM     11  C   UNL     1      13.833  77.933  -4.657  1.00  0.00     0.007 C 
ENDBRANCH   8   9
ENDBRANCH   7   8
ENDBRANCH   6   7
ENDBRANCH   4   6
ENDBRANCH   3   4
ENDBRANCH   2   3
ENDBRANCH   1   2
BRANCH   1  12
ATOM     12  C   UNL     1       9.495  80.489  -1.217  1.00  0.00    -0.014 C 
ATOM     13  C   UNL     1      10.477  81.213  -2.157  1.00  0.00     0.007 C 
BRANCH  12  14
ATOM     14  C   UNL     1       9.041  79.142  -1.835  1.00  0.00     0.003 C 
BRANCH  14  15
ATOM     15  C   UNL     1       7.546  78.825  -1.587  1.00  0.00     0.004 C 
BRANCH  15  16
ATOM     16  C   UNL     1       7.273  77.966  -0.326  1.00  0.00     0.048 C 
BRANCH  16  17
ATOM     17  C   UNL     1       7.571  76.430  -0.404  1.00  0.00     0.107 C 
ATOM     18  C   UNL     1       6.505  75.595   0.341  1.00  0.00     0.056 C 
ATOM     19  C   UNL     1       8.991  76.105   0.125  1.00  0.00     0.053 C 
ATOM     20  O   UNL     1       7.507  76.082  -1.789  1.00  0.00    -0.487 OA
ATOM     21  C   UNL     1       9.429  74.673  -0.210  1.00  0.00     0.044 C 
ATOM     22  C   UNL     1       8.159  74.982  -2.366  1.00  0.00     0.127 A 
ATOM     23  C   UNL     1       9.134  74.274  -1.639  1.00  0.00     0.001 A 
ATOM     24  C   UNL     1       7.831  74.606  -3.682  1.00  0.00    -0.002 A 
ATOM     25  C   UNL     1       9.758  73.145  -2.221  1.00  0.00    -0.001 A 
ATOM     26  C   UNL     1       8.537  73.548  -4.305  1.00  0.00    -0.001 A 
ATOM     27  C   UNL     1       6.758  75.363  -4.431  1.00  0.00     0.049 C 
ATOM     28  C   UNL     1      10.754  72.327  -1.430  1.00  0.00     0.049 C 
ATOM     29  C   UNL     1       9.465  72.795  -3.556  1.00  0.00     0.137 A 
ATOM     30  C   UNL     1       8.258  73.171  -5.743  1.00  0.00     0.049 C 
BRANCH  29  31
ATOM     31  O   UNL     1      10.108  71.696  -4.139  1.00  0.00    -0.426 OA
BRANCH  31  32
ATOM     32  C   UNL     1      11.088  71.838  -5.131  1.00  0.00     0.308 C 
ATOM     33  C   UNL     1      12.232  72.766  -4.905  1.00  0.00     0.139 C 
ATOM     34  O   UNL     1      10.999  71.209  -6.220  1.00  0.00    -0.252 OA
ENDBRANCH  31  32
ENDBRANCH  29  31
ENDBRANCH  16  17
ENDBRANCH  15  16
ENDBRANCH  14  15
ENDBRANCH  12  14
ENDBRANCH   1  12
TORSDOF 14
ENDMDL
MODEL 12
REMARK VINA RESULT:    -7.808      2.044      4.308
REMARK INTER + INTRA:         -16.565
REMARK INTER:                 -14.678
REMARK INTRA:                  -1.887
REMARK UNBOUND:                -2.366
REMARK SMILES CC(=O)Oc1c(C)c(C)c2c(c1C)CC[C@@](C)(CCC[C@H](C)CCC[C@H](C)CCCC(C)C)O2
REMARK SMILES IDX 23 1 24 2 25 3 26 4 27 5 28 6 29 7 30 8 31 9 32 10 33 11
REMARK SMILES IDX 21 12 22 13 20 14 19 15 18 16 16 17 17 18 15 19 34 20 14 21
REMARK SMILES IDX 10 22 11 23 8 24 12 25 6 26 9 27 13 28 5 29 7 30 4 31 2 32
REMARK SMILES IDX 1 33 3 34
REMARK H PARENT
REMARK Flexibility Score: inf
ROOT
ATOM      1  C   UNL     1       8.407  76.733   0.021  1.00  0.00     0.003 C 
ENDROOT
BRANCH   1   2
ATOM      2  C   UNL     1       8.287  75.392  -0.731  1.00  0.00     0.001 C 
BRANCH   2   3
ATOM      3  C   UNL     1       9.652  74.765  -1.071  1.00  0.00     0.003 C 
BRANCH   3   4
ATOM      4  C   UNL     1       9.591  73.809  -2.286  1.00  0.00    -0.014 C 
ATOM      5  C   UNL     1       8.431  74.202  -3.215  1.00  0.00     0.007 C 
BRANCH   4   6
ATOM      6  C   UNL     1       9.531  72.302  -1.919  1.00  0.00     0.003 C 
BRANCH   6   7
ATOM      7  C   UNL     1      10.022  71.347  -3.029  1.00  0.00     0.001 C 
BRANCH   7   8
ATOM      8  C   UNL     1      11.351  71.835  -3.655  1.00  0.00     0.003 C 
BRANCH   8   9
ATOM      9  C   UNL     1      11.301  71.938  -5.200  1.00  0.00    -0.017 C 
ATOM     10  C   UNL     1      12.293  73.005  -5.688  1.00  0.00     0.007 C 
ATOM     11  C   UNL     1       9.894  72.256  -5.717  1.00  0.00     0.007 C 
ENDBRANCH   8   9
ENDBRANCH   7   8
ENDBRANCH   6   7
ENDBRANCH   4   6
ENDBRANCH   3   4
ENDBRANCH   2   3
ENDBRANCH   1   2
BRANCH   1  12
ATOM     12  C   UNL     1       7.881  77.986  -0.731  1.00  0.00    -0.014 C 
ATOM     13  C   UNL     1       6.675  78.555   0.040  1.00  0.00     0.007 C 
BRANCH  12  14
ATOM     14  C   UNL     1       8.982  79.065  -0.893  1.00  0.00     0.003 C 
BRANCH  14  15
ATOM     15  C   UNL     1      10.266  78.535  -1.579  1.00  0.00     0.004 C 
BRANCH  15  16
ATOM     16  C   UNL     1      11.502  78.452  -0.649  1.00  0.00     0.048 C 
BRANCH  16  17
ATOM     17  C   UNL     1      12.905  78.791  -1.256  1.00  0.00     0.107 C 
ATOM     18  C   UNL     1      14.059  78.194  -0.420  1.00  0.00     0.056 C 
ATOM     19  C   UNL     1      13.088  80.320  -1.430  1.00  0.00     0.053 C 
ATOM     20  O   UNL     1      12.939  78.176  -2.547  1.00  0.00    -0.487 OA
ATOM     21  C   UNL     1      14.308  80.672  -2.291  1.00  0.00     0.044 C 
ATOM     22  C   UNL     1      13.750  78.597  -3.610  1.00  0.00     0.127 A 
ATOM     23  C   UNL     1      14.422  79.832  -3.544  1.00  0.00     0.001 A 
ATOM     24  C   UNL     1      13.872  77.773  -4.745  1.00  0.00    -0.002 A 
ATOM     25  C   UNL     1      15.264  80.228  -4.609  1.00  0.00    -0.001 A 
ATOM     26  C   UNL     1      14.623  78.222  -5.859  1.00  0.00    -0.001 A 
ATOM     27  C   UNL     1      13.165  76.438  -4.779  1.00  0.00     0.049 C 
ATOM     28  C   UNL     1      16.052  81.517  -4.525  1.00  0.00     0.049 C 
ATOM     29  C   UNL     1      15.351  79.427  -5.767  1.00  0.00     0.137 A 
ATOM     30  C   UNL     1      14.710  77.392  -7.120  1.00  0.00     0.049 C 
BRANCH  29  31
ATOM     31  O   UNL     1      16.162  79.838  -6.833  1.00  0.00    -0.426 OA
BRANCH  31  32
ATOM     32  C   UNL     1      17.491  79.415  -6.970  1.00  0.00     0.308 C 
ATOM     33  C   UNL     1      18.597  80.317  -6.541  1.00  0.00     0.139 C 
ATOM     34  O   UNL     1      17.762  78.292  -7.475  1.00  0.00    -0.252 OA
ENDBRANCH  31  32
ENDBRANCH  29  31
ENDBRANCH  16  17
ENDBRANCH  15  16
ENDBRANCH  14  15
ENDBRANCH  12  14
ENDBRANCH   1  12
TORSDOF 14
ENDMDL
MODEL 13
REMARK VINA RESULT:    -7.730      2.838      8.751
REMARK INTER + INTRA:         -16.423
REMARK INTER:                 -14.367
REMARK INTRA:                  -2.056
REMARK UNBOUND:                -2.366
REMARK SMILES CC(=O)Oc1c(C)c(C)c2c(c1C)CC[C@@](C)(CCC[C@H](C)CCC[C@H](C)CCCC(C)C)O2
REMARK SMILES IDX 23 1 24 2 25 3 26 4 27 5 28 6 29 7 30 8 31 9 32 10 33 11
REMARK SMILES IDX 21 12 22 13 20 14 19 15 18 16 16 17 17 18 15 19 34 20 14 21
REMARK SMILES IDX 10 22 11 23 8 24 12 25 6 26 9 27 13 28 5 29 7 30 4 31 2 32
REMARK SMILES IDX 1 33 3 34
REMARK H PARENT
REMARK Flexibility Score: inf
ROOT
ATOM      1  C   UNL     1      12.705  80.057  -3.914  1.00  0.00     0.003 C 
ENDROOT
BRANCH   1   2
ATOM      2  C   UNL     1      13.617  80.123  -5.155  1.00  0.00     0.001 C 
BRANCH   2   3
ATOM      3  C   UNL     1      14.296  81.493  -5.335  1.00  0.00     0.003 C 
BRANCH   3   4
ATOM      4  C   UNL     1      15.744  81.384  -5.868  1.00  0.00    -0.014 C 
ATOM      5  C   UNL     1      15.924  82.272  -7.110  1.00  0.00     0.007 C 
BRANCH   4   6
ATOM      6  C   UNL     1      16.223  79.933  -6.142  1.00  0.00     0.003 C 
BRANCH   6   7
ATOM      7  C   UNL     1      17.615  79.826  -6.803  1.00  0.00     0.001 C 
BRANCH   7   8
ATOM      8  C   UNL     1      18.752  79.941  -5.761  1.00  0.00     0.003 C 
BRANCH   8   9
ATOM      9  C   UNL     1      19.559  81.258  -5.874  1.00  0.00    -0.017 C 
ATOM     10  C   UNL     1      19.164  82.215  -4.738  1.00  0.00     0.007 C 
ATOM     11  C   UNL     1      19.363  81.946  -7.230  1.00  0.00     0.007 C 
ENDBRANCH   8   9
ENDBRANCH   7   8
ENDBRANCH   6   7
ENDBRANCH   4   6
ENDBRANCH   3   4
ENDBRANCH   2   3
ENDBRANCH   1   2
BRANCH   1  12
ATOM     12  C   UNL     1      13.327  79.415  -2.644  1.00  0.00    -0.014 C 
ATOM     13  C   UNL     1      14.589  78.633  -3.053  1.00  0.00     0.007 C 
BRANCH  12  14
ATOM     14  C   UNL     1      13.669  80.478  -1.569  1.00  0.00     0.003 C 
BRANCH  14  15
ATOM     15  C   UNL     1      12.492  80.780  -0.608  1.00  0.00     0.004 C 
BRANCH  15  16
ATOM     16  C   UNL     1      11.287  81.490  -1.273  1.00  0.00     0.048 C 
BRANCH  16  17
ATOM     17  C   UNL     1       9.923  80.724  -1.334  1.00  0.00     0.107 C 
ATOM     18  C   UNL     1       9.060  81.169  -2.536  1.00  0.00     0.056 C 
ATOM     19  C   UNL     1       9.134  80.874  -0.008  1.00  0.00     0.053 C 
ATOM     20  O   UNL     1      10.249  79.344  -1.519  1.00  0.00    -0.487 OA
ATOM     21  C   UNL     1       7.949  79.903   0.084  1.00  0.00     0.044 C 
ATOM     22  C   UNL     1       9.422  78.272  -1.152  1.00  0.00     0.127 A 
ATOM     23  C   UNL     1       8.295  78.492  -0.339  1.00  0.00     0.001 A 
ATOM     24  C   UNL     1       9.743  76.977  -1.600  1.00  0.00    -0.002 A 
ATOM     25  C   UNL     1       7.450  77.407  -0.007  1.00  0.00    -0.001 A 
ATOM     26  C   UNL     1       8.964  75.874  -1.171  1.00  0.00    -0.001 A 
ATOM     27  C   UNL     1      10.943  76.771  -2.496  1.00  0.00     0.049 C 
ATOM     28  C   UNL     1       6.193  77.634   0.804  1.00  0.00     0.049 C 
ATOM     29  C   UNL     1       7.796  76.102  -0.414  1.00  0.00     0.137 A 
ATOM     30  C   UNL     1       9.329  74.463  -1.575  1.00  0.00     0.049 C 
BRANCH  29  31
ATOM     31  O   UNL     1       6.974  75.025  -0.056  1.00  0.00    -0.426 OA
BRANCH  31  32
ATOM     32  C   UNL     1       5.737  74.788  -0.672  1.00  0.00     0.308 C 
ATOM     33  C   UNL     1       5.692  74.437  -2.119  1.00  0.00     0.139 C 
ATOM     34  O   UNL     1       4.662  74.893  -0.021  1.00  0.00    -0.252 OA
ENDBRANCH  31  32
ENDBRANCH  29  31
ENDBRANCH  16  17
ENDBRANCH  15  16
ENDBRANCH  14  15
ENDBRANCH  12  14
ENDBRANCH   1  12
TORSDOF 14
ENDMDL
MODEL 14
REMARK VINA RESULT:    -7.581      1.465      3.228
REMARK INTER + INTRA:         -16.151
REMARK INTER:                 -14.452
REMARK INTRA:                  -1.699
REMARK UNBOUND:                -2.366
REMARK SMILES CC(=O)Oc1c(C)c(C)c2c(c1C)CC[C@@](C)(CCC[C@H](C)CCC[C@H](C)CCCC(C)C)O2
REMARK SMILES IDX 23 1 24 2 25 3 26 4 27 5 28 6 29 7 30 8 31 9 32 10 33 11
REMARK SMILES IDX 21 12 22 13 20 14 19 15 18 16 16 17 17 18 15 19 34 20 14 21
REMARK SMILES IDX 10 22 11 23 8 24 12 25 6 26 9 27 13 28 5 29 7 30 4 31 2 32
REMARK SMILES IDX 1 33 3 34
REMARK H PARENT
REMARK Flexibility Score: inf
ROOT
ATOM      1  C   UNL     1       7.831  77.236  -0.428  1.00  0.00     0.003 C 
ENDROOT
BRANCH   1   2
ATOM      2  C   UNL     1       7.739  75.757  -0.000  1.00  0.00     0.001 C 
BRANCH   2   3
ATOM      3  C   UNL     1       7.218  74.835  -1.119  1.00  0.00     0.003 C 
BRANCH   3   4
ATOM      4  C   UNL     1       8.098  74.874  -2.390  1.00  0.00    -0.014 C 
ATOM      5  C   UNL     1       7.264  75.322  -3.602  1.00  0.00     0.007 C 
BRANCH   4   6
ATOM      6  C   UNL     1       8.858  73.554  -2.691  1.00  0.00     0.003 C 
BRANCH   6   7
ATOM      7  C   UNL     1       8.964  73.196  -4.189  1.00  0.00     0.001 C 
BRANCH   7   8
ATOM      8  C   UNL     1       9.523  71.768  -4.396  1.00  0.00     0.003 C 
BRANCH   8   9
ATOM      9  C   UNL     1      11.069  71.700  -4.352  1.00  0.00    -0.017 C 
ATOM     10  C   UNL     1      11.556  71.731  -2.895  1.00  0.00     0.007 C 
ATOM     11  C   UNL     1      11.724  72.835  -5.148  1.00  0.00     0.007 C 
ENDBRANCH   8   9
ENDBRANCH   7   8
ENDBRANCH   6   7
ENDBRANCH   4   6
ENDBRANCH   3   4
ENDBRANCH   2   3
ENDBRANCH   1   2
BRANCH   1  12
ATOM     12  C   UNL     1       6.667  78.154   0.033  1.00  0.00    -0.014 C 
ATOM     13  C   UNL     1       6.036  77.551   1.302  1.00  0.00     0.007 C 
BRANCH  12  14
ATOM     14  C   UNL     1       7.145  79.604   0.298  1.00  0.00     0.003 C 
BRANCH  14  15
ATOM     15  C   UNL     1       8.407  79.992  -0.513  1.00  0.00     0.004 C 
BRANCH  15  16
ATOM     16  C   UNL     1       9.497  80.725   0.309  1.00  0.00     0.048 C 
BRANCH  16  17
ATOM     17  C   UNL     1      10.997  80.409  -0.010  1.00  0.00     0.107 C 
ATOM     18  C   UNL     1      11.744  79.843   1.219  1.00  0.00     0.056 C 
ATOM     19  C   UNL     1      11.728  81.656  -0.570  1.00  0.00     0.053 C 
ATOM     20  O   UNL     1      10.984  79.394  -1.017  1.00  0.00    -0.487 OA
ATOM     21  C   UNL     1      13.097  81.313  -1.171  1.00  0.00     0.044 C 
ATOM     22  C   UNL     1      12.026  79.159  -1.926  1.00  0.00     0.127 A 
ATOM     23  C   UNL     1      13.074  80.089  -2.060  1.00  0.00     0.001 A 
ATOM     24  C   UNL     1      12.000  77.989  -2.707  1.00  0.00    -0.002 A 
ATOM     25  C   UNL     1      14.136  79.822  -2.954  1.00  0.00    -0.001 A 
ATOM     26  C   UNL     1      13.003  77.777  -3.686  1.00  0.00    -0.001 A 
ATOM     27  C   UNL     1      10.880  76.991  -2.524  1.00  0.00     0.049 C 
ATOM     28  C   UNL     1      15.309  80.771  -3.059  1.00  0.00     0.049 C 
ATOM     29  C   UNL     1      14.089  78.673  -3.772  1.00  0.00     0.137 A 
ATOM     30  C   UNL     1      12.960  76.566  -4.591  1.00  0.00     0.049 C 
BRANCH  29  31
ATOM     31  O   UNL     1      15.128  78.427  -4.680  1.00  0.00    -0.426 OA
BRANCH  31  32
ATOM     32  C   UNL     1      15.090  78.884  -6.005  1.00  0.00     0.308 C 
ATOM     33  C   UNL     1      15.922  80.054  -6.403  1.00  0.00     0.139 C 
ATOM     34  O   UNL     1      14.343  78.330  -6.856  1.00  0.00    -0.252 OA
ENDBRANCH  31  32
ENDBRANCH  29  31
ENDBRANCH  16  17
ENDBRANCH  15  16
ENDBRANCH  14  15
ENDBRANCH  12  14
ENDBRANCH   1  12
TORSDOF 14
ENDMDL
MODEL 15
REMARK VINA RESULT:    -7.307      1.750      6.100
REMARK INTER + INTRA:         -15.653
REMARK INTER:                 -13.078
REMARK INTRA:                  -2.575
REMARK UNBOUND:                -2.366
REMARK SMILES CC(=O)Oc1c(C)c(C)c2c(c1C)CC[C@@](C)(CCC[C@H](C)CCC[C@H](C)CCCC(C)C)O2
REMARK SMILES IDX 23 1 24 2 25 3 26 4 27 5 28 6 29 7 30 8 31 9 32 10 33 11
REMARK SMILES IDX 21 12 22 13 20 14 19 15 18 16 16 17 17 18 15 19 34 20 14 21
REMARK SMILES IDX 10 22 11 23 8 24 12 25 6 26 9 27 13 28 5 29 7 30 4 31 2 32
REMARK SMILES IDX 1 33 3 34
REMARK H PARENT
REMARK Flexibility Score: inf
ROOT
ATOM      1  C   UNL     1      12.528  77.887  -3.738  1.00  0.00     0.003 C 
ENDROOT
BRANCH   1   2
ATOM      2  C   UNL     1      12.041  76.424  -3.713  1.00  0.00     0.001 C 
BRANCH   2   3
ATOM      3  C   UNL     1      10.682  76.250  -3.009  1.00  0.00     0.003 C 
BRANCH   3   4
ATOM      4  C   UNL     1       9.979  74.922  -3.375  1.00  0.00    -0.014 C 
ATOM      5  C   UNL     1       8.453  75.101  -3.346  1.00  0.00     0.007 C 
BRANCH   4   6
ATOM      6  C   UNL     1      10.416  73.702  -2.521  1.00  0.00     0.003 C 
BRANCH   6   7
ATOM      7  C   UNL     1       9.660  72.391  -2.830  1.00  0.00     0.001 C 
BRANCH   7   8
ATOM      8  C   UNL     1      10.545  71.394  -3.616  1.00  0.00     0.003 C 
BRANCH   8   9
ATOM      9  C   UNL     1      10.514  71.620  -5.148  1.00  0.00    -0.017 C 
ATOM     10  C   UNL     1      11.658  72.556  -5.565  1.00  0.00     0.007 C 
ATOM     11  C   UNL     1       9.172  72.187  -5.625  1.00  0.00     0.007 C 
ENDBRANCH   8   9
ENDBRANCH   7   8
ENDBRANCH   6   7
ENDBRANCH   4   6
ENDBRANCH   3   4
ENDBRANCH   2   3
ENDBRANCH   1   2
BRANCH   1  12
ATOM     12  C   UNL     1      13.966  78.119  -4.276  1.00  0.00    -0.014 C 
ATOM     13  C   UNL     1      13.891  79.047  -5.503  1.00  0.00     0.007 C 
BRANCH  12  14
ATOM     14  C   UNL     1      14.897  78.721  -3.193  1.00  0.00     0.003 C 
BRANCH  14  15
ATOM     15  C   UNL     1      14.330  80.008  -2.543  1.00  0.00     0.004 C 
BRANCH  15  16
ATOM     16  C   UNL     1      14.391  80.025  -0.995  1.00  0.00     0.048 C 
BRANCH  16  17
ATOM     17  C   UNL     1      13.235  79.323  -0.205  1.00  0.00     0.107 C 
ATOM     18  C   UNL     1      13.194  79.763   1.276  1.00  0.00     0.056 C 
ATOM     19  C   UNL     1      13.334  77.780  -0.316  1.00  0.00     0.053 C 
ATOM     20  O   UNL     1      12.017  79.749  -0.820  1.00  0.00    -0.487 OA
ATOM     21  C   UNL     1      12.067  77.073   0.182  1.00  0.00     0.044 C 
ATOM     22  C   UNL     1      10.810  79.036  -0.780  1.00  0.00     0.127 A 
ATOM     23  C   UNL     1      10.788  77.705  -0.323  1.00  0.00     0.001 A 
ATOM     24  C   UNL     1       9.629  79.666  -1.214  1.00  0.00    -0.002 A 
ATOM     25  C   UNL     1       9.559  77.009  -0.254  1.00  0.00    -0.001 A 
ATOM     26  C   UNL     1       8.418  78.932  -1.254  1.00  0.00    -0.001 A 
ATOM     27  C   UNL     1       9.674  81.106  -1.672  1.00  0.00     0.049 C 
ATOM     28  C   UNL     1       9.502  75.605   0.304  1.00  0.00     0.049 C 
ATOM     29  C   UNL     1       8.381  77.622  -0.732  1.00  0.00     0.137 A 
ATOM     30  C   UNL     1       7.148  79.560  -1.786  1.00  0.00     0.049 C 
BRANCH  29  31
ATOM     31  O   UNL     1       7.170  76.919  -0.692  1.00  0.00    -0.426 OA
BRANCH  31  32
ATOM     32  C   UNL     1       6.445  76.741   0.494  1.00  0.00     0.308 C 
ATOM     33  C   UNL     1       5.652  75.494   0.690  1.00  0.00     0.139 C 
ATOM     34  O   UNL     1       6.436  77.633   1.384  1.00  0.00    -0.252 OA
ENDBRANCH  31  32
ENDBRANCH  29  31
ENDBRANCH  16  17
ENDBRANCH  15  16
ENDBRANCH  14  15
ENDBRANCH  12  14
ENDBRANCH   1  12
TORSDOF 14
ENDMDL
