MODEL 1
REMARK VINA RESULT:    -8.396      0.000      0.000
REMARK INTER + INTRA:         -12.977
REMARK INTER:                 -11.832
REMARK INTRA:                  -1.145
REMARK UNBOUND:                -1.145
REMARK SMILES C=C(C)[C@@H]1CCC(C)=C[C@H]1c1c(O)cc(CCCCC)cc1O.CCCCCc1cc(O)c2c(c1)OC(C)(C)[C@@H]1CCC(C)=C[C@@H]21
REMARK SMILES IDX 16 1 15 2 11 3 12 4 22 5 14 6 21 7 10 8 4 9 5 10 6 11 9 12
REMARK SMILES IDX 7 13 8 14 2 15 3 16 1 17 13 18 23 20 17 22 18 23 19 24 20 25
REMARK H PARENT 13 19 23 21
REMARK Flexibility Score: inf
ROOT
ATOM      1  C   UNL     1       9.368  72.097  -3.425  1.00  0.00     0.036 C 
ENDROOT
BRANCH   1   2
ATOM      2  C   UNL     1       9.298  73.427  -2.722  1.00  0.00    -0.041 A 
ATOM      3  C   UNL     1       9.115  75.894  -1.349  1.00  0.00     0.043 A 
ATOM      4  C   UNL     1       9.876  74.827  -0.819  1.00  0.00     0.123 A 
ATOM      5  C   UNL     1       8.450  75.706  -2.585  1.00  0.00     0.123 A 
ATOM      6  C   UNL     1       9.955  73.607  -1.500  1.00  0.00     0.050 A 
ATOM      7  C   UNL     1       8.537  74.476  -3.253  1.00  0.00     0.050 A 
BRANCH   3   8
ATOM      8  C   UNL     1       9.074  77.237  -0.628  1.00  0.00     0.056 C 
ATOM      9  C   UNL     1       9.682  78.361  -1.503  1.00  0.00     0.026 C 
ATOM     10  C   UNL     1       9.477  79.719  -0.814  1.00  0.00     0.013 C 
ATOM     11  C   UNL     1       7.982  80.012  -0.649  1.00  0.00     0.031 C 
ATOM     12  C   UNL     1       7.667  77.569  -0.172  1.00  0.00    -0.019 C 
ATOM     13  C   UNL     1       7.196  78.835  -0.103  1.00  0.00    -0.077 C 
ATOM     14  C   UNL     1       5.808  79.068   0.423  1.00  0.00     0.039 C 
BRANCH   9  15
ATOM     15  C   UNL     1      11.155  78.106  -1.810  1.00  0.00    -0.076 C 
ATOM     16  C   UNL     1      12.183  78.233  -0.717  1.00  0.00     0.039 C 
ATOM     17  C   UNL     1      11.570  77.800  -3.052  1.00  0.00     0.008 C 
ENDBRANCH   9  15
ENDBRANCH   3   8
BRANCH   4  18
ATOM     18  O   UNL     1      10.559  74.979   0.389  1.00  0.00    -0.507 OA
ATOM     19  H   UNL     1      11.573  75.011   0.431  1.00  0.00     0.293 HD
ENDBRANCH   4  18
BRANCH   5  20
ATOM     20  O   UNL     1       7.705  76.742  -3.151  1.00  0.00    -0.507 OA
ATOM     21  H   UNL     1       8.129  77.426  -3.768  1.00  0.00     0.293 HD
ENDBRANCH   5  20
ENDBRANCH   1   2
BRANCH   1  22
ATOM     22  C   UNL     1       9.353  72.289  -4.949  1.00  0.00     0.005 C 
BRANCH  22  23
ATOM     23  C   UNL     1      10.635  71.776  -5.628  1.00  0.00     0.000 C 
BRANCH  23  24
ATOM     24  C   UNL     1      11.906  72.154  -4.855  1.00  0.00    -0.003 C 
ATOM     25  C   UNL     1      12.400  73.542  -5.260  1.00  0.00     0.004 C 
ENDBRANCH  23  24
ENDBRANCH  22  23
ENDBRANCH   1  22
TORSDOF 8
ENDMDL
MODEL 2
REMARK VINA RESULT:    -8.354      1.093      2.986
REMARK INTER + INTRA:         -12.918
REMARK INTER:                 -12.341
REMARK INTRA:                  -0.577
REMARK UNBOUND:                -1.145
REMARK SMILES C=C(C)[C@@H]1CCC(C)=C[C@H]1c1c(O)cc(CCCCC)cc1O.CCCCCc1cc(O)c2c(c1)OC(C)(C)[C@@H]1CCC(C)=C[C@@H]21
REMARK SMILES IDX 16 1 15 2 11 3 12 4 22 5 14 6 21 7 10 8 4 9 5 10 6 11 9 12
REMARK SMILES IDX 7 13 8 14 2 15 3 16 1 17 13 18 23 20 17 22 18 23 19 24 20 25
REMARK H PARENT 13 19 23 21
REMARK Flexibility Score: inf
ROOT
ATOM      1  C   UNL     1       9.066  72.250  -2.273  1.00  0.00     0.036 C 
ENDROOT
BRANCH   1   2
ATOM      2  C   UNL     1       9.175  73.752  -2.231  1.00  0.00    -0.041 A 
ATOM      3  C   UNL     1       9.341  76.572  -2.079  1.00  0.00     0.043 A 
ATOM      4  C   UNL     1      10.200  75.756  -1.307  1.00  0.00     0.123 A 
ATOM      5  C   UNL     1       8.399  75.951  -2.934  1.00  0.00     0.123 A 
ATOM      6  C   UNL     1      10.106  74.362  -1.382  1.00  0.00     0.050 A 
ATOM      7  C   UNL     1       8.316  74.553  -2.994  1.00  0.00     0.050 A 
BRANCH   3   8
ATOM      8  C   UNL     1       9.483  78.090  -2.031  1.00  0.00     0.056 C 
ATOM      9  C   UNL     1       9.125  78.642  -0.629  1.00  0.00     0.026 C 
ATOM     10  C   UNL     1       9.435  80.146  -0.572  1.00  0.00     0.013 C 
ATOM     11  C   UNL     1      10.930  80.392  -0.805  1.00  0.00     0.031 C 
ATOM     12  C   UNL     1      10.864  78.524  -2.478  1.00  0.00    -0.019 C 
ATOM     13  C   UNL     1      11.489  79.615  -1.981  1.00  0.00    -0.077 C 
ATOM     14  C   UNL     1      12.833  80.001  -2.534  1.00  0.00     0.039 C 
BRANCH   9  15
ATOM     15  C   UNL     1       7.673  78.354  -0.259  1.00  0.00    -0.076 C 
ATOM     16  C   UNL     1       7.276  76.980   0.211  1.00  0.00     0.039 C 
ATOM     17  C   UNL     1       6.721  79.296  -0.375  1.00  0.00     0.008 C 
ENDBRANCH   9  15
ENDBRANCH   3   8
BRANCH   4  18
ATOM     18  O   UNL     1      11.153  76.331  -0.465  1.00  0.00    -0.507 OA
ATOM     19  H   UNL     1      11.281  77.335  -0.408  1.00  0.00     0.293 HD
ENDBRANCH   4  18
BRANCH   5  20
ATOM     20  O   UNL     1       7.548  76.723  -3.727  1.00  0.00    -0.507 OA
ATOM     21  H   UNL     1       7.783  76.960  -4.684  1.00  0.00     0.293 HD
ENDBRANCH   5  20
ENDBRANCH   1   2
BRANCH   1  22
ATOM     22  C   UNL     1      10.221  71.648  -3.085  1.00  0.00     0.005 C 
BRANCH  22  23
ATOM     23  C   UNL     1       9.773  71.108  -4.454  1.00  0.00     0.000 C 
BRANCH  23  24
ATOM     24  C   UNL     1      10.329  71.929  -5.625  1.00  0.00    -0.003 C 
ATOM     25  C   UNL     1      11.630  72.627  -5.233  1.00  0.00     0.004 C 
ENDBRANCH  23  24
ENDBRANCH  22  23
ENDBRANCH   1  22
TORSDOF 8
ENDMDL
MODEL 3
REMARK VINA RESULT:    -8.242      0.263      1.777
REMARK INTER + INTRA:         -12.759
REMARK INTER:                 -11.665
REMARK INTRA:                  -1.093
REMARK UNBOUND:                -1.145
REMARK SMILES C=C(C)[C@@H]1CCC(C)=C[C@H]1c1c(O)cc(CCCCC)cc1O.CCCCCc1cc(O)c2c(c1)OC(C)(C)[C@@H]1CCC(C)=C[C@@H]21
REMARK SMILES IDX 16 1 15 2 11 3 12 4 22 5 14 6 21 7 10 8 4 9 5 10 6 11 9 12
REMARK SMILES IDX 7 13 8 14 2 15 3 16 1 17 13 18 23 20 17 22 18 23 19 24 20 25
REMARK H PARENT 13 19 23 21
REMARK Flexibility Score: inf
ROOT
ATOM      1  C   UNL     1       9.374  72.171  -3.339  1.00  0.00     0.036 C 
ENDROOT
BRANCH   1   2
ATOM      2  C   UNL     1       9.343  73.516  -2.661  1.00  0.00    -0.041 A 
ATOM      3  C   UNL     1       9.335  76.070  -1.445  1.00  0.00     0.043 A 
ATOM      4  C   UNL     1       8.586  75.828  -2.619  1.00  0.00     0.123 A 
ATOM      5  C   UNL     1      10.086  75.008  -0.885  1.00  0.00     0.123 A 
ATOM      6  C   UNL     1       8.601  74.564  -3.219  1.00  0.00     0.050 A 
ATOM      7  C   UNL     1      10.093  73.749  -1.501  1.00  0.00     0.050 A 
BRANCH   3   8
ATOM      8  C   UNL     1       9.274  77.436  -0.767  1.00  0.00     0.056 C 
ATOM      9  C   UNL     1       9.887  78.535  -1.669  1.00  0.00     0.026 C 
ATOM     10  C   UNL     1       9.662  79.913  -1.027  1.00  0.00     0.013 C 
ATOM     11  C   UNL     1       8.162  80.200  -0.894  1.00  0.00     0.031 C 
ATOM     12  C   UNL     1       7.858  77.771  -0.344  1.00  0.00    -0.019 C 
ATOM     13  C   UNL     1       7.377  79.035  -0.322  1.00  0.00    -0.077 C 
ATOM     14  C   UNL     1       5.979  79.274   0.175  1.00  0.00     0.039 C 
BRANCH   9  15
ATOM     15  C   UNL     1      11.366  78.282  -1.946  1.00  0.00    -0.076 C 
ATOM     16  C   UNL     1      12.365  78.357  -0.821  1.00  0.00     0.039 C 
ATOM     17  C   UNL     1      11.813  78.024  -3.187  1.00  0.00     0.008 C 
ENDBRANCH   9  15
ENDBRANCH   3   8
BRANCH   4  18
ATOM     18  O   UNL     1       7.820  76.844  -3.191  1.00  0.00    -0.507 OA
ATOM     19  H   UNL     1       8.113  77.816  -3.164  1.00  0.00     0.293 HD
ENDBRANCH   4  18
BRANCH   5  20
ATOM     20  O   UNL     1      10.822  75.204   0.285  1.00  0.00    -0.507 OA
ATOM     21  H   UNL     1      11.517  74.533   0.593  1.00  0.00     0.293 HD
ENDBRANCH   5  20
ENDBRANCH   1   2
BRANCH   1  22
ATOM     22  C   UNL     1       9.247  72.331  -4.861  1.00  0.00     0.005 C 
BRANCH  22  23
ATOM     23  C   UNL     1      10.505  71.870  -5.617  1.00  0.00     0.000 C 
BRANCH  23  24
ATOM     24  C   UNL     1      11.797  72.130  -4.830  1.00  0.00    -0.003 C 
ATOM     25  C   UNL     1      12.424  73.463  -5.233  1.00  0.00     0.004 C 
ENDBRANCH  23  24
ENDBRANCH  22  23
ENDBRANCH   1  22
TORSDOF 8
ENDMDL
MODEL 4
REMARK VINA RESULT:    -8.167      1.097      3.445
REMARK INTER + INTRA:         -12.653
REMARK INTER:                 -12.098
REMARK INTRA:                  -0.555
REMARK UNBOUND:                -1.145
REMARK SMILES C=C(C)[C@@H]1CCC(C)=C[C@H]1c1c(O)cc(CCCCC)cc1O.CCCCCc1cc(O)c2c(c1)OC(C)(C)[C@@H]1CCC(C)=C[C@@H]21
REMARK SMILES IDX 16 1 15 2 11 3 12 4 22 5 14 6 21 7 10 8 4 9 5 10 6 11 9 12
REMARK SMILES IDX 7 13 8 14 2 15 3 16 1 17 13 18 23 20 17 22 18 23 19 24 20 25
REMARK H PARENT 13 19 23 21
REMARK Flexibility Score: inf
ROOT
ATOM      1  C   UNL     1       9.026  72.224  -2.254  1.00  0.00     0.036 C 
ENDROOT
BRANCH   1   2
ATOM      2  C   UNL     1       9.150  73.723  -2.181  1.00  0.00    -0.041 A 
ATOM      3  C   UNL     1       9.422  76.538  -2.115  1.00  0.00     0.043 A 
ATOM      4  C   UNL     1       8.448  75.926  -2.937  1.00  0.00     0.123 A 
ATOM      5  C   UNL     1      10.255  75.715  -1.319  1.00  0.00     0.123 A 
ATOM      6  C   UNL     1       8.326  74.533  -2.970  1.00  0.00     0.050 A 
ATOM      7  C   UNL     1      10.122  74.321  -1.368  1.00  0.00     0.050 A 
BRANCH   3   8
ATOM      8  C   UNL     1       9.516  78.059  -2.045  1.00  0.00     0.056 C 
ATOM      9  C   UNL     1       9.149  78.578  -0.632  1.00  0.00     0.026 C 
ATOM     10  C   UNL     1       9.411  80.090  -0.554  1.00  0.00     0.013 C 
ATOM     11  C   UNL     1      10.897  80.386  -0.789  1.00  0.00     0.031 C 
ATOM     12  C   UNL     1      10.882  78.542  -2.490  1.00  0.00    -0.019 C 
ATOM     13  C   UNL     1      11.475  79.645  -1.980  1.00  0.00    -0.077 C 
ATOM     14  C   UNL     1      12.803  80.081  -2.532  1.00  0.00     0.039 C 
BRANCH   9  15
ATOM     15  C   UNL     1       7.708  78.240  -0.261  1.00  0.00    -0.076 C 
ATOM     16  C   UNL     1       6.654  79.315  -0.286  1.00  0.00     0.039 C 
ATOM     17  C   UNL     1       7.355  77.001   0.125  1.00  0.00     0.008 C 
ENDBRANCH   9  15
ENDBRANCH   3   8
BRANCH   4  18
ATOM     18  O   UNL     1       7.597  76.704  -3.723  1.00  0.00    -0.507 OA
ATOM     19  H   UNL     1       7.228  77.591  -3.397  1.00  0.00     0.293 HD
ENDBRANCH   4  18
BRANCH   5  20
ATOM     20  O   UNL     1      11.214  76.284  -0.480  1.00  0.00    -0.507 OA
ATOM     21  H   UNL     1      12.159  76.467  -0.799  1.00  0.00     0.293 HD
ENDBRANCH   5  20
ENDBRANCH   1   2
BRANCH   1  22
ATOM     22  C   UNL     1      10.193  71.623  -3.051  1.00  0.00     0.005 C 
BRANCH  22  23
ATOM     23  C   UNL     1       9.772  71.128  -4.446  1.00  0.00     0.000 C 
BRANCH  23  24
ATOM     24  C   UNL     1      10.269  72.043  -5.574  1.00  0.00    -0.003 C 
ATOM     25  C   UNL     1      11.630  72.645  -5.229  1.00  0.00     0.004 C 
ENDBRANCH  23  24
ENDBRANCH  22  23
ENDBRANCH   1  22
TORSDOF 8
ENDMDL
MODEL 5
REMARK VINA RESULT:    -8.075      3.186      6.098
REMARK INTER + INTRA:         -12.524
REMARK INTER:                 -11.435
REMARK INTRA:                  -1.089
REMARK UNBOUND:                -1.145
REMARK SMILES C=C(C)[C@@H]1CCC(C)=C[C@H]1c1c(O)cc(CCCCC)cc1O.CCCCCc1cc(O)c2c(c1)OC(C)(C)[C@@H]1CCC(C)=C[C@@H]21
REMARK SMILES IDX 16 1 15 2 11 3 12 4 22 5 14 6 21 7 10 8 4 9 5 10 6 11 9 12
REMARK SMILES IDX 7 13 8 14 2 15 3 16 1 17 13 18 23 20 17 22 18 23 19 24 20 25
REMARK H PARENT 13 19 23 21
REMARK Flexibility Score: inf
ROOT
ATOM      1  C   UNL     1       7.507  76.300  -1.461  1.00  0.00     0.036 C 
ENDROOT
BRANCH   1   2
ATOM      2  C   UNL     1       8.748  77.137  -1.634  1.00  0.00    -0.041 A 
ATOM      3  C   UNL     1      11.035  78.759  -2.007  1.00  0.00     0.043 A 
ATOM      4  C   UNL     1       9.985  79.177  -1.157  1.00  0.00     0.123 A 
ATOM      5  C   UNL     1      10.923  77.509  -2.664  1.00  0.00     0.123 A 
ATOM      6  C   UNL     1       8.854  78.372  -0.984  1.00  0.00     0.050 A 
ATOM      7  C   UNL     1       9.780  76.718  -2.482  1.00  0.00     0.050 A 
BRANCH   3   8
ATOM      8  C   UNL     1      12.289  79.616  -2.152  1.00  0.00     0.056 C 
ATOM      9  C   UNL     1      13.529  78.898  -1.564  1.00  0.00     0.026 C 
ATOM     10  C   UNL     1      14.792  79.716  -1.872  1.00  0.00     0.013 C 
ATOM     11  C   UNL     1      14.995  79.834  -3.387  1.00  0.00     0.031 C 
ATOM     12  C   UNL     1      12.502  80.032  -3.593  1.00  0.00    -0.019 C 
ATOM     13  C   UNL     1      13.729  80.210  -4.134  1.00  0.00    -0.077 C 
ATOM     14  C   UNL     1      13.838  80.686  -5.555  1.00  0.00     0.039 C 
BRANCH   9  15
ATOM     15  C   UNL     1      13.379  78.641  -0.068  1.00  0.00    -0.076 C 
ATOM     16  C   UNL     1      13.237  79.800   0.883  1.00  0.00     0.039 C 
ATOM     17  C   UNL     1      13.403  77.395   0.436  1.00  0.00     0.008 C 
ENDBRANCH   9  15
ENDBRANCH   3   8
BRANCH   4  18
ATOM     18  O   UNL     1      10.067  80.394  -0.480  1.00  0.00    -0.507 OA
ATOM     19  H   UNL     1       9.936  81.281  -0.954  1.00  0.00     0.293 HD
ENDBRANCH   4  18
BRANCH   5  20
ATOM     20  O   UNL     1      11.948  77.054  -3.495  1.00  0.00    -0.507 OA
ATOM     21  H   UNL     1      12.068  76.069  -3.699  1.00  0.00     0.293 HD
ENDBRANCH   5  20
ENDBRANCH   1   2
BRANCH   1  22
ATOM     22  C   UNL     1       7.291  75.954   0.019  1.00  0.00     0.005 C 
BRANCH  22  23
ATOM     23  C   UNL     1       5.931  76.438   0.553  1.00  0.00     0.000 C 
BRANCH  23  24
ATOM     24  C   UNL     1       6.061  77.632   1.509  1.00  0.00    -0.003 C 
ATOM     25  C   UNL     1       5.686  78.936   0.809  1.00  0.00     0.004 C 
ENDBRANCH  23  24
ENDBRANCH  22  23
ENDBRANCH   1  22
TORSDOF 8
ENDMDL
MODEL 6
REMARK VINA RESULT:    -8.008      3.276      6.139
REMARK INTER + INTRA:         -12.430
REMARK INTER:                 -11.433
REMARK INTRA:                  -0.997
REMARK UNBOUND:                -1.145
REMARK SMILES C=C(C)[C@@H]1CCC(C)=C[C@H]1c1c(O)cc(CCCCC)cc1O.CCCCCc1cc(O)c2c(c1)OC(C)(C)[C@@H]1CCC(C)=C[C@@H]21
REMARK SMILES IDX 16 1 15 2 11 3 12 4 22 5 14 6 21 7 10 8 4 9 5 10 6 11 9 12
REMARK SMILES IDX 7 13 8 14 2 15 3 16 1 17 13 18 23 20 17 22 18 23 19 24 20 25
REMARK H PARENT 13 19 23 21
REMARK Flexibility Score: inf
ROOT
ATOM      1  C   UNL     1       7.437  76.522  -1.534  1.00  0.00     0.036 C 
ENDROOT
BRANCH   1   2
ATOM      2  C   UNL     1       8.693  77.344  -1.672  1.00  0.00    -0.041 A 
ATOM      3  C   UNL     1      11.088  78.833  -1.885  1.00  0.00     0.043 A 
ATOM      4  C   UNL     1      10.910  77.643  -2.627  1.00  0.00     0.123 A 
ATOM      5  C   UNL     1      10.041  79.270  -1.037  1.00  0.00     0.123 A 
ATOM      6  C   UNL     1       9.725  76.908  -2.510  1.00  0.00     0.050 A 
ATOM      7  C   UNL     1       8.862  78.519  -0.929  1.00  0.00     0.050 A 
BRANCH   3   8
ATOM      8  C   UNL     1      12.361  79.657  -2.055  1.00  0.00     0.056 C 
ATOM      9  C   UNL     1      13.593  78.904  -1.495  1.00  0.00     0.026 C 
ATOM     10  C   UNL     1      14.872  79.688  -1.829  1.00  0.00     0.013 C 
ATOM     11  C   UNL     1      15.044  79.805  -3.348  1.00  0.00     0.031 C 
ATOM     12  C   UNL     1      12.554  80.070  -3.500  1.00  0.00    -0.019 C 
ATOM     13  C   UNL     1      13.773  80.217  -4.066  1.00  0.00    -0.077 C 
ATOM     14  C   UNL     1      13.864  80.693  -5.489  1.00  0.00     0.039 C 
BRANCH   9  15
ATOM     15  C   UNL     1      13.469  78.647   0.004  1.00  0.00    -0.076 C 
ATOM     16  C   UNL     1      13.356  79.808   0.957  1.00  0.00     0.039 C 
ATOM     17  C   UNL     1      13.491  77.401   0.506  1.00  0.00     0.008 C 
ENDBRANCH   9  15
ENDBRANCH   3   8
BRANCH   4  18
ATOM     18  O   UNL     1      11.912  77.189  -3.485  1.00  0.00    -0.507 OA
ATOM     19  H   UNL     1      12.308  76.259  -3.402  1.00  0.00     0.293 HD
ENDBRANCH   4  18
BRANCH   5  20
ATOM     20  O   UNL     1      10.172  80.451  -0.305  1.00  0.00    -0.507 OA
ATOM     21  H   UNL     1      10.768  81.208  -0.619  1.00  0.00     0.293 HD
ENDBRANCH   5  20
ENDBRANCH   1   2
BRANCH   1  22
ATOM     22  C   UNL     1       7.276  76.020  -0.092  1.00  0.00     0.005 C 
BRANCH  22  23
ATOM     23  C   UNL     1       5.931  76.427   0.535  1.00  0.00     0.000 C 
BRANCH  23  24
ATOM     24  C   UNL     1       6.061  77.620   1.492  1.00  0.00    -0.003 C 
ATOM     25  C   UNL     1       5.687  78.925   0.791  1.00  0.00     0.004 C 
ENDBRANCH  23  24
ENDBRANCH  22  23
ENDBRANCH   1  22
TORSDOF 8
ENDMDL
MODEL 7
REMARK VINA RESULT:    -7.829      3.699      6.358
REMARK INTER + INTRA:         -12.178
REMARK INTER:                 -11.320
REMARK INTRA:                  -0.858
REMARK UNBOUND:                -1.145
REMARK SMILES C=C(C)[C@@H]1CCC(C)=C[C@H]1c1c(O)cc(CCCCC)cc1O.CCCCCc1cc(O)c2c(c1)OC(C)(C)[C@@H]1CCC(C)=C[C@@H]21
REMARK SMILES IDX 16 1 15 2 11 3 12 4 22 5 14 6 21 7 10 8 4 9 5 10 6 11 9 12
REMARK SMILES IDX 7 13 8 14 2 15 3 16 1 17 13 18 23 20 17 22 18 23 19 24 20 25
REMARK H PARENT 13 19 23 21
REMARK Flexibility Score: inf
ROOT
ATOM      1  C   UNL     1       7.198  78.525  -0.281  1.00  0.00     0.036 C 
ENDROOT
BRANCH   1   2
ATOM      2  C   UNL     1       8.590  78.914  -0.705  1.00  0.00    -0.041 A 
ATOM      3  C   UNL     1      11.172  79.702  -1.550  1.00  0.00     0.043 A 
ATOM      4  C   UNL     1      10.454  80.474  -0.608  1.00  0.00     0.123 A 
ATOM      5  C   UNL     1      10.577  78.523  -2.059  1.00  0.00     0.123 A 
ATOM      6  C   UNL     1       9.174  80.082  -0.201  1.00  0.00     0.050 A 
ATOM      7  C   UNL     1       9.292  78.146  -1.643  1.00  0.00     0.050 A 
BRANCH   3   8
ATOM      8  C   UNL     1      12.587  80.108  -1.951  1.00  0.00     0.056 C 
ATOM      9  C   UNL     1      13.612  79.011  -1.570  1.00  0.00     0.026 C 
ATOM     10  C   UNL     1      14.994  79.379  -2.132  1.00  0.00     0.013 C 
ATOM     11  C   UNL     1      14.943  79.460  -3.662  1.00  0.00     0.031 C 
ATOM     12  C   UNL     1      12.657  80.464  -3.422  1.00  0.00    -0.019 C 
ATOM     13  C   UNL     1      13.754  80.246  -4.181  1.00  0.00    -0.077 C 
ATOM     14  C   UNL     1      13.749  80.693  -5.616  1.00  0.00     0.039 C 
BRANCH   9  15
ATOM     15  C   UNL     1      13.664  78.782  -0.062  1.00  0.00    -0.076 C 
ATOM     16  C   UNL     1      13.302  77.435   0.506  1.00  0.00     0.039 C 
ATOM     17  C   UNL     1      13.995  79.770   0.786  1.00  0.00     0.008 C 
ENDBRANCH   9  15
ENDBRANCH   3   8
BRANCH   4  18
ATOM     18  O   UNL     1      11.014  81.634  -0.071  1.00  0.00    -0.507 OA
ATOM     19  H   UNL     1      10.469  82.286   0.484  1.00  0.00     0.293 HD
ENDBRANCH   4  18
BRANCH   5  20
ATOM     20  O   UNL     1      11.263  77.724  -2.975  1.00  0.00    -0.507 OA
ATOM     21  H   UNL     1      10.779  77.231  -3.717  1.00  0.00     0.293 HD
ENDBRANCH   5  20
ENDBRANCH   1   2
BRANCH   1  22
ATOM     22  C   UNL     1       7.143  77.037   0.092  1.00  0.00     0.005 C 
BRANCH  22  23
ATOM     23  C   UNL     1       5.842  76.649   0.816  1.00  0.00     0.000 C 
BRANCH  23  24
ATOM     24  C   UNL     1       5.325  75.264   0.404  1.00  0.00    -0.003 C 
ATOM     25  C   UNL     1       6.118  74.715  -0.781  1.00  0.00     0.004 C 
ENDBRANCH  23  24
ENDBRANCH  22  23
ENDBRANCH   1  22
TORSDOF 8
ENDMDL
MODEL 8
REMARK VINA RESULT:    -7.824      2.386      4.696
REMARK INTER + INTRA:         -12.170
REMARK INTER:                 -11.407
REMARK INTRA:                  -0.763
REMARK UNBOUND:                -1.145
REMARK SMILES C=C(C)[C@@H]1CCC(C)=C[C@H]1c1c(O)cc(CCCCC)cc1O.CCCCCc1cc(O)c2c(c1)OC(C)(C)[C@@H]1CCC(C)=C[C@@H]21
REMARK SMILES IDX 16 1 15 2 11 3 12 4 22 5 14 6 21 7 10 8 4 9 5 10 6 11 9 12
REMARK SMILES IDX 7 13 8 14 2 15 3 16 1 17 13 18 23 20 17 22 18 23 19 24 20 25
REMARK H PARENT 13 19 23 21
REMARK Flexibility Score: inf
ROOT
ATOM      1  C   UNL     1       8.081  75.242  -2.130  1.00  0.00     0.036 C 
ENDROOT
BRANCH   1   2
ATOM      2  C   UNL     1       9.158  76.296  -2.121  1.00  0.00    -0.041 A 
ATOM      3  C   UNL     1      11.131  78.323  -2.149  1.00  0.00     0.043 A 
ATOM      4  C   UNL     1       9.994  78.434  -1.316  1.00  0.00     0.123 A 
ATOM      5  C   UNL     1      11.267  77.173  -2.965  1.00  0.00     0.123 A 
ATOM      6  C   UNL     1       9.018  77.431  -1.315  1.00  0.00     0.050 A 
ATOM      7  C   UNL     1      10.278  76.180  -2.953  1.00  0.00     0.050 A 
BRANCH   3   8
ATOM      8  C   UNL     1      12.216  79.395  -2.109  1.00  0.00     0.056 C 
ATOM      9  C   UNL     1      13.487  78.878  -1.390  1.00  0.00     0.026 C 
ATOM     10  C   UNL     1      14.608  79.921  -1.512  1.00  0.00     0.013 C 
ATOM     11  C   UNL     1      14.965  80.150  -2.985  1.00  0.00     0.031 C 
ATOM     12  C   UNL     1      12.521  79.914  -3.500  1.00  0.00    -0.019 C 
ATOM     13  C   UNL     1      13.750  80.335  -3.875  1.00  0.00    -0.077 C 
ATOM     14  C   UNL     1      13.940  80.894  -5.257  1.00  0.00     0.039 C 
BRANCH   9  15
ATOM     15  C   UNL     1      13.208  78.523   0.068  1.00  0.00    -0.076 C 
ATOM     16  C   UNL     1      12.955  79.616   1.072  1.00  0.00     0.039 C 
ATOM     17  C   UNL     1      13.216  77.247   0.493  1.00  0.00     0.008 C 
ENDBRANCH   9  15
ENDBRANCH   3   8
BRANCH   4  18
ATOM     18  O   UNL     1       9.832  79.544  -0.486  1.00  0.00    -0.507 OA
ATOM     19  H   UNL     1       9.712  79.450   0.517  1.00  0.00     0.293 HD
ENDBRANCH   4  18
BRANCH   5  20
ATOM     20  O   UNL     1      12.386  77.018  -3.784  1.00  0.00    -0.507 OA
ATOM     21  H   UNL     1      12.298  76.895  -4.787  1.00  0.00     0.293 HD
ENDBRANCH   5  20
ENDBRANCH   1   2
BRANCH   1  22
ATOM     22  C   UNL     1       8.465  74.086  -3.064  1.00  0.00     0.005 C 
BRANCH  22  23
ATOM     23  C   UNL     1       9.144  72.920  -2.323  1.00  0.00     0.000 C 
BRANCH  23  24
ATOM     24  C   UNL     1      10.270  72.273  -3.143  1.00  0.00    -0.003 C 
ATOM     25  C   UNL     1       9.732  71.131  -4.003  1.00  0.00     0.004 C 
ENDBRANCH  23  24
ENDBRANCH  22  23
ENDBRANCH   1  22
TORSDOF 8
ENDMDL
MODEL 9
REMARK VINA RESULT:    -7.791      2.415      4.765
REMARK INTER + INTRA:         -12.124
REMARK INTER:                 -11.422
REMARK INTRA:                  -0.702
REMARK UNBOUND:                -1.145
REMARK SMILES C=C(C)[C@@H]1CCC(C)=C[C@H]1c1c(O)cc(CCCCC)cc1O.CCCCCc1cc(O)c2c(c1)OC(C)(C)[C@@H]1CCC(C)=C[C@@H]21
REMARK SMILES IDX 16 1 15 2 11 3 12 4 22 5 14 6 21 7 10 8 4 9 5 10 6 11 9 12
REMARK SMILES IDX 7 13 8 14 2 15 3 16 1 17 13 18 23 20 17 22 18 23 19 24 20 25
REMARK H PARENT 13 19 23 21
REMARK Flexibility Score: inf
ROOT
ATOM      1  C   UNL     1       7.972  75.464  -2.250  1.00  0.00     0.036 C 
ENDROOT
BRANCH   1   2
ATOM      2  C   UNL     1       9.066  76.499  -2.210  1.00  0.00    -0.041 A 
ATOM      3  C   UNL     1      11.165  78.391  -2.090  1.00  0.00     0.043 A 
ATOM      4  C   UNL     1      11.254  77.268  -2.945  1.00  0.00     0.123 A 
ATOM      5  C   UNL     1      10.003  78.554  -1.300  1.00  0.00     0.123 A 
ATOM      6  C   UNL     1      10.214  76.332  -2.992  1.00  0.00     0.050 A 
ATOM      7  C   UNL     1       8.973  77.605  -1.356  1.00  0.00     0.050 A 
BRANCH   3   8
ATOM      8  C   UNL     1      12.279  79.433  -2.081  1.00  0.00     0.056 C 
ATOM      9  C   UNL     1      13.555  78.883  -1.397  1.00  0.00     0.026 C 
ATOM     10  C   UNL     1      14.700  79.896  -1.550  1.00  0.00     0.013 C 
ATOM     11  C   UNL     1      15.022  80.116  -3.033  1.00  0.00     0.031 C 
ATOM     12  C   UNL     1      12.559  79.945  -3.480  1.00  0.00    -0.019 C 
ATOM     13  C   UNL     1      13.788  80.332  -3.889  1.00  0.00    -0.077 C 
ATOM     14  C   UNL     1      13.954  80.887  -5.276  1.00  0.00     0.039 C 
BRANCH   9  15
ATOM     15  C   UNL     1      13.308  78.535   0.068  1.00  0.00    -0.076 C 
ATOM     16  C   UNL     1      13.044  79.632   1.066  1.00  0.00     0.039 C 
ATOM     17  C   UNL     1      13.352  77.265   0.505  1.00  0.00     0.008 C 
ENDBRANCH   9  15
ENDBRANCH   3   8
BRANCH   4  18
ATOM     18  O   UNL     1      12.376  77.081  -3.753  1.00  0.00    -0.507 OA
ATOM     19  H   UNL     1      13.186  76.560  -3.432  1.00  0.00     0.293 HD
ENDBRANCH   4  18
BRANCH   5  20
ATOM     20  O   UNL     1       9.871  79.661  -0.459  1.00  0.00    -0.507 OA
ATOM     21  H   UNL     1       9.660  80.582  -0.824  1.00  0.00     0.293 HD
ENDBRANCH   5  20
ENDBRANCH   1   2
BRANCH   1  22
ATOM     22  C   UNL     1       8.381  74.278  -3.134  1.00  0.00     0.005 C 
BRANCH  22  23
ATOM     23  C   UNL     1       9.031  73.134  -2.337  1.00  0.00     0.000 C 
BRANCH  23  24
ATOM     24  C   UNL     1      10.202  72.481  -3.085  1.00  0.00    -0.003 C 
ATOM     25  C   UNL     1       9.808  71.105  -3.619  1.00  0.00     0.004 C 
ENDBRANCH  23  24
ENDBRANCH  22  23
ENDBRANCH   1  22
TORSDOF 8
ENDMDL
MODEL 10
REMARK VINA RESULT:    -7.590      2.744      5.166
REMARK INTER + INTRA:         -11.840
REMARK INTER:                 -10.845
REMARK INTRA:                  -0.995
REMARK UNBOUND:                -1.145
REMARK SMILES C=C(C)[C@@H]1CCC(C)=C[C@H]1c1c(O)cc(CCCCC)cc1O.CCCCCc1cc(O)c2c(c1)OC(C)(C)[C@@H]1CCC(C)=C[C@@H]21
REMARK SMILES IDX 16 1 15 2 11 3 12 4 22 5 14 6 21 7 10 8 4 9 5 10 6 11 9 12
REMARK SMILES IDX 7 13 8 14 2 15 3 16 1 17 13 18 23 20 17 22 18 23 19 24 20 25
REMARK H PARENT 13 19 23 21
REMARK Flexibility Score: inf
ROOT
ATOM      1  C   UNL     1       6.745  76.808  -0.012  1.00  0.00     0.036 C 
ENDROOT
BRANCH   1   2
ATOM      2  C   UNL     1       7.956  77.516  -0.562  1.00  0.00    -0.041 A 
ATOM      3  C   UNL     1      10.248  78.870  -1.520  1.00  0.00     0.043 A 
ATOM      4  C   UNL     1      10.367  77.624  -0.862  1.00  0.00     0.123 A 
ATOM      5  C   UNL     1       8.957  79.425  -1.696  1.00  0.00     0.123 A 
ATOM      6  C   UNL     1       9.230  76.965  -0.384  1.00  0.00     0.050 A 
ATOM      7  C   UNL     1       7.828  78.753  -1.207  1.00  0.00     0.050 A 
BRANCH   3   8
ATOM      8  C   UNL     1      11.486  79.559  -2.083  1.00  0.00     0.056 C 
ATOM      9  C   UNL     1      12.525  79.841  -0.969  1.00  0.00     0.026 C 
ATOM     10  C   UNL     1      13.819  80.384  -1.596  1.00  0.00     0.013 C 
ATOM     11  C   UNL     1      14.425  79.348  -2.550  1.00  0.00     0.031 C 
ATOM     12  C   UNL     1      12.081  78.763  -3.227  1.00  0.00    -0.019 C 
ATOM     13  C   UNL     1      13.407  78.731  -3.491  1.00  0.00    -0.077 C 
ATOM     14  C   UNL     1      13.894  77.964  -4.688  1.00  0.00     0.039 C 
BRANCH   9  15
ATOM     15  C   UNL     1      11.976  80.789   0.092  1.00  0.00    -0.076 C 
ATOM     16  C   UNL     1      12.156  80.468   1.552  1.00  0.00     0.039 C 
ATOM     17  C   UNL     1      11.299  81.901  -0.244  1.00  0.00     0.008 C 
ENDBRANCH   9  15
ENDBRANCH   3   8
BRANCH   4  18
ATOM     18  O   UNL     1      11.621  77.036  -0.684  1.00  0.00    -0.507 OA
ATOM     19  H   UNL     1      12.478  77.518  -0.934  1.00  0.00     0.293 HD
ENDBRANCH   4  18
BRANCH   5  20
ATOM     20  O   UNL     1       8.797  80.643  -2.358  1.00  0.00    -0.507 OA
ATOM     21  H   UNL     1       8.799  81.524  -1.857  1.00  0.00     0.293 HD
ENDBRANCH   5  20
ENDBRANCH   1   2
BRANCH   1  22
ATOM     22  C   UNL     1       6.899  75.287  -0.153  1.00  0.00     0.005 C 
BRANCH  22  23
ATOM     23  C   UNL     1       6.349  74.751  -1.486  1.00  0.00     0.000 C 
BRANCH  23  24
ATOM     24  C   UNL     1       7.428  74.654  -2.575  1.00  0.00    -0.003 C 
ATOM     25  C   UNL     1       7.104  75.577  -3.748  1.00  0.00     0.004 C 
ENDBRANCH  23  24
ENDBRANCH  22  23
ENDBRANCH   1  22
TORSDOF 8
ENDMDL
MODEL 11
REMARK VINA RESULT:    -7.440      2.307      5.320
REMARK INTER + INTRA:         -11.630
REMARK INTER:                 -10.586
REMARK INTRA:                  -1.044
REMARK UNBOUND:                -1.145
REMARK SMILES C=C(C)[C@@H]1CCC(C)=C[C@H]1c1c(O)cc(CCCCC)cc1O.CCCCCc1cc(O)c2c(c1)OC(C)(C)[C@@H]1CCC(C)=C[C@@H]21
REMARK SMILES IDX 16 1 15 2 11 3 12 4 22 5 14 6 21 7 10 8 4 9 5 10 6 11 9 12
REMARK SMILES IDX 7 13 8 14 2 15 3 16 1 17 13 18 23 20 17 22 18 23 19 24 20 25
REMARK H PARENT 13 19 23 21
REMARK Flexibility Score: inf
ROOT
ATOM      1  C   UNL     1       7.088  76.551  -0.350  1.00  0.00     0.036 C 
ENDROOT
BRANCH   1   2
ATOM      2  C   UNL     1       8.270  77.379  -0.782  1.00  0.00    -0.041 A 
ATOM      3  C   UNL     1      10.475  78.912  -1.671  1.00  0.00     0.043 A 
ATOM      4  C   UNL     1       9.153  79.387  -1.833  1.00  0.00     0.123 A 
ATOM      5  C   UNL     1      10.675  77.656  -1.049  1.00  0.00     0.123 A 
ATOM      6  C   UNL     1       8.067  78.619  -1.398  1.00  0.00     0.050 A 
ATOM      7  C   UNL     1       9.575  76.898  -0.623  1.00  0.00     0.050 A 
BRANCH   3   8
ATOM      8  C   UNL     1      11.656  79.776  -2.101  1.00  0.00     0.056 C 
ATOM      9  C   UNL     1      12.656  79.976  -0.936  1.00  0.00     0.026 C 
ATOM     10  C   UNL     1      13.905  80.710  -1.449  1.00  0.00     0.013 C 
ATOM     11  C   UNL     1      14.606  79.879  -2.529  1.00  0.00     0.031 C 
ATOM     12  C   UNL     1      12.327  79.208  -3.336  1.00  0.00    -0.019 C 
ATOM     13  C   UNL     1      13.653  79.325  -3.572  1.00  0.00    -0.077 C 
ATOM     14  C   UNL     1      14.215  78.785  -4.857  1.00  0.00     0.039 C 
BRANCH   9  15
ATOM     15  C   UNL     1      12.019  80.710   0.240  1.00  0.00    -0.076 C 
ATOM     16  C   UNL     1      11.170  81.929  -0.008  1.00  0.00     0.039 C 
ATOM     17  C   UNL     1      12.222  80.314   1.508  1.00  0.00     0.008 C 
ENDBRANCH   9  15
ENDBRANCH   3   8
BRANCH   4  18
ATOM     18  O   UNL     1       8.916  80.628  -2.427  1.00  0.00    -0.507 OA
ATOM     19  H   UNL     1       9.645  81.327  -2.517  1.00  0.00     0.293 HD
ENDBRANCH   4  18
BRANCH   5  20
ATOM     20  O   UNL     1      11.966  77.163  -0.853  1.00  0.00    -0.507 OA
ATOM     21  H   UNL     1      12.681  77.715  -0.395  1.00  0.00     0.293 HD
ENDBRANCH   5  20
ENDBRANCH   1   2
BRANCH   1  22
ATOM     22  C   UNL     1       7.265  75.089  -0.783  1.00  0.00     0.005 C 
BRANCH  22  23
ATOM     23  C   UNL     1       6.966  74.867  -2.276  1.00  0.00     0.000 C 
BRANCH  23  24
ATOM     24  C   UNL     1       8.213  74.465  -3.076  1.00  0.00    -0.003 C 
ATOM     25  C   UNL     1       9.028  73.414  -2.325  1.00  0.00     0.004 C 
ENDBRANCH  23  24
ENDBRANCH  22  23
ENDBRANCH   1  22
TORSDOF 8
ENDMDL
MODEL 12
REMARK VINA RESULT:    -7.344      2.141      5.939
REMARK INTER + INTRA:         -11.494
REMARK INTER:                 -10.676
REMARK INTRA:                  -0.818
REMARK UNBOUND:                -1.145
REMARK SMILES C=C(C)[C@@H]1CCC(C)=C[C@H]1c1c(O)cc(CCCCC)cc1O.CCCCCc1cc(O)c2c(c1)OC(C)(C)[C@@H]1CCC(C)=C[C@@H]21
REMARK SMILES IDX 16 1 15 2 11 3 12 4 22 5 14 6 21 7 10 8 4 9 5 10 6 11 9 12
REMARK SMILES IDX 7 13 8 14 2 15 3 16 1 17 13 18 23 20 17 22 18 23 19 24 20 25
REMARK H PARENT 13 19 23 21
REMARK Flexibility Score: inf
ROOT
ATOM      1  C   UNL     1      12.939  78.782  -1.938  1.00  0.00     0.036 C 
ENDROOT
BRANCH   1   2
ATOM      2  C   UNL     1      11.536  78.280  -1.714  1.00  0.00    -0.041 A 
ATOM      3  C   UNL     1       8.892  77.396  -1.238  1.00  0.00     0.043 A 
ATOM      4  C   UNL     1       9.139  78.543  -2.028  1.00  0.00     0.123 A 
ATOM      5  C   UNL     1       9.994  76.694  -0.695  1.00  0.00     0.123 A 
ATOM      6  C   UNL     1      10.449  78.978  -2.251  1.00  0.00     0.050 A 
ATOM      7  C   UNL     1      11.301  77.146  -0.926  1.00  0.00     0.050 A 
BRANCH   3   8
ATOM      8  C   UNL     1       7.464  76.897  -1.040  1.00  0.00     0.056 C 
ATOM      9  C   UNL     1       7.380  75.359  -1.205  1.00  0.00     0.026 C 
ATOM     10  C   UNL     1       5.968  74.878  -0.840  1.00  0.00     0.013 C 
ATOM     11  C   UNL     1       5.653  75.209   0.623  1.00  0.00     0.031 C 
ATOM     12  C   UNL     1       6.905  77.358   0.291  1.00  0.00    -0.019 C 
ATOM     13  C   UNL     1       6.020  76.630   1.009  1.00  0.00    -0.077 C 
ATOM     14  C   UNL     1       5.473  77.200   2.287  1.00  0.00     0.039 C 
BRANCH   9  15
ATOM     15  C   UNL     1       7.777  74.918  -2.611  1.00  0.00    -0.076 C 
ATOM     16  C   UNL     1       7.122  75.551  -3.810  1.00  0.00     0.039 C 
ATOM     17  C   UNL     1       8.682  73.944  -2.811  1.00  0.00     0.008 C 
ENDBRANCH   9  15
ENDBRANCH   3   8
BRANCH   4  18
ATOM     18  O   UNL     1       8.079  79.252  -2.595  1.00  0.00    -0.507 OA
ATOM     19  H   UNL     1       8.094  80.263  -2.678  1.00  0.00     0.293 HD
ENDBRANCH   4  18
BRANCH   5  20
ATOM     20  O   UNL     1       9.791  75.546   0.073  1.00  0.00    -0.507 OA
ATOM     21  H   UNL     1       9.321  75.583   0.970  1.00  0.00     0.293 HD
ENDBRANCH   5  20
ENDBRANCH   1   2
BRANCH   1  22
ATOM     22  C   UNL     1      13.039  80.276  -1.598  1.00  0.00     0.005 C 
BRANCH  22  23
ATOM     23  C   UNL     1      12.637  80.586  -0.145  1.00  0.00     0.000 C 
BRANCH  23  24
ATOM     24  C   UNL     1      11.517  81.631  -0.052  1.00  0.00    -0.003 C 
ATOM     25  C   UNL     1      10.346  81.105   0.777  1.00  0.00     0.004 C 
ENDBRANCH  23  24
ENDBRANCH  22  23
ENDBRANCH   1  22
TORSDOF 8
ENDMDL
MODEL 13
REMARK VINA RESULT:    -7.296      3.841      6.511
REMARK INTER + INTRA:         -11.426
REMARK INTER:                 -10.597
REMARK INTRA:                  -0.829
REMARK UNBOUND:                -1.145
REMARK SMILES C=C(C)[C@@H]1CCC(C)=C[C@H]1c1c(O)cc(CCCCC)cc1O.CCCCCc1cc(O)c2c(c1)OC(C)(C)[C@@H]1CCC(C)=C[C@@H]21
REMARK SMILES IDX 16 1 15 2 11 3 12 4 22 5 14 6 21 7 10 8 4 9 5 10 6 11 9 12
REMARK SMILES IDX 7 13 8 14 2 15 3 16 1 17 13 18 23 20 17 22 18 23 19 24 20 25
REMARK H PARENT 13 19 23 21
REMARK Flexibility Score: inf
ROOT
ATOM      1  C   UNL     1      15.938  80.080  -4.199  1.00  0.00     0.036 C 
ENDROOT
BRANCH   1   2
ATOM      2  C   UNL     1      14.692  79.802  -3.399  1.00  0.00    -0.041 A 
ATOM      3  C   UNL     1      12.354  79.356  -1.869  1.00  0.00     0.043 A 
ATOM      4  C   UNL     1      12.294  80.069  -3.090  1.00  0.00     0.123 A 
ATOM      5  C   UNL     1      13.607  78.864  -1.430  1.00  0.00     0.123 A 
ATOM      6  C   UNL     1      13.456  80.292  -3.836  1.00  0.00     0.050 A 
ATOM      7  C   UNL     1      14.762  79.100  -2.189  1.00  0.00     0.050 A 
BRANCH   3   8
ATOM      8  C   UNL     1      11.076  79.072  -1.086  1.00  0.00     0.056 C 
ATOM      9  C   UNL     1      10.344  80.386  -0.716  1.00  0.00     0.026 C 
ATOM     10  C   UNL     1       8.988  80.056  -0.074  1.00  0.00     0.013 C 
ATOM     11  C   UNL     1       8.102  79.290  -1.063  1.00  0.00     0.031 C 
ATOM     12  C   UNL     1      10.177  78.112  -1.838  1.00  0.00    -0.019 C 
ATOM     13  C   UNL     1       8.828  78.157  -1.765  1.00  0.00    -0.077 C 
ATOM     14  C   UNL     1       8.023  77.121  -2.497  1.00  0.00     0.039 C 
BRANCH   9  15
ATOM     15  C   UNL     1      11.192  81.272   0.191  1.00  0.00    -0.076 C 
ATOM     16  C   UNL     1      11.586  80.785   1.561  1.00  0.00     0.039 C 
ATOM     17  C   UNL     1      11.575  82.503  -0.189  1.00  0.00     0.008 C 
ENDBRANCH   9  15
ENDBRANCH   3   8
BRANCH   4  18
ATOM     18  O   UNL     1      11.075  80.555  -3.564  1.00  0.00    -0.507 OA
ATOM     19  H   UNL     1      10.276  80.687  -2.953  1.00  0.00     0.293 HD
ENDBRANCH   4  18
BRANCH   5  20
ATOM     20  O   UNL     1      13.703  78.138  -0.242  1.00  0.00    -0.507 OA
ATOM     21  H   UNL     1      14.599  77.853   0.136  1.00  0.00     0.293 HD
ENDBRANCH   5  20
ENDBRANCH   1   2
BRANCH   1  22
ATOM     22  C   UNL     1      15.618  80.982  -5.400  1.00  0.00     0.005 C 
BRANCH  22  23
ATOM     23  C   UNL     1      16.522  80.703  -6.614  1.00  0.00     0.000 C 
BRANCH  23  24
ATOM     24  C   UNL     1      17.572  79.619  -6.333  1.00  0.00    -0.003 C 
ATOM     25  C   UNL     1      17.618  78.596  -7.467  1.00  0.00     0.004 C 
ENDBRANCH  23  24
ENDBRANCH  22  23
ENDBRANCH   1  22
TORSDOF 8
ENDMDL
MODEL 14
REMARK VINA RESULT:    -7.277      3.479      6.303
REMARK INTER + INTRA:         -11.399
REMARK INTER:                 -10.685
REMARK INTRA:                  -0.714
REMARK UNBOUND:                -1.145
REMARK SMILES C=C(C)[C@@H]1CCC(C)=C[C@H]1c1c(O)cc(CCCCC)cc1O.CCCCCc1cc(O)c2c(c1)OC(C)(C)[C@@H]1CCC(C)=C[C@@H]21
REMARK SMILES IDX 16 1 15 2 11 3 12 4 22 5 14 6 21 7 10 8 4 9 5 10 6 11 9 12
REMARK SMILES IDX 7 13 8 14 2 15 3 16 1 17 13 18 23 20 17 22 18 23 19 24 20 25
REMARK H PARENT 13 19 23 21
REMARK Flexibility Score: inf
ROOT
ATOM      1  C   UNL     1      15.593  80.081  -3.952  1.00  0.00     0.036 C 
ENDROOT
BRANCH   1   2
ATOM      2  C   UNL     1      14.428  79.573  -3.143  1.00  0.00    -0.041 A 
ATOM      3  C   UNL     1      12.191  78.664  -1.670  1.00  0.00     0.043 A 
ATOM      4  C   UNL     1      12.457  78.159  -2.964  1.00  0.00     0.123 A 
ATOM      5  C   UNL     1      13.070  79.630  -1.122  1.00  0.00     0.123 A 
ATOM      6  C   UNL     1      13.561  78.620  -3.689  1.00  0.00     0.050 A 
ATOM      7  C   UNL     1      14.169  80.083  -1.864  1.00  0.00     0.050 A 
BRANCH   3   8
ATOM      8  C   UNL     1      11.015  78.121  -0.864  1.00  0.00     0.056 C 
ATOM      9  C   UNL     1       9.666  78.621  -1.438  1.00  0.00     0.026 C 
ATOM     10  C   UNL     1       8.506  77.927  -0.706  1.00  0.00     0.013 C 
ATOM     11  C   UNL     1       8.572  76.410  -0.919  1.00  0.00     0.031 C 
ATOM     12  C   UNL     1      11.069  76.610  -0.771  1.00  0.00    -0.019 C 
ATOM     13  C   UNL     1       9.961  75.836  -0.714  1.00  0.00    -0.077 C 
ATOM     14  C   UNL     1      10.117  74.349  -0.558  1.00  0.00     0.039 C 
BRANCH   9  15
ATOM     15  C   UNL     1       9.545  80.140  -1.364  1.00  0.00    -0.076 C 
ATOM     16  C   UNL     1       9.565  80.830  -0.026  1.00  0.00     0.039 C 
ATOM     17  C   UNL     1       9.387  80.886  -2.471  1.00  0.00     0.008 C 
ENDBRANCH   9  15
ENDBRANCH   3   8
BRANCH   4  18
ATOM     18  O   UNL     1      11.623  77.195  -3.531  1.00  0.00    -0.507 OA
ATOM     19  H   UNL     1      11.867  76.713  -4.390  1.00  0.00     0.293 HD
ENDBRANCH   4  18
BRANCH   5  20
ATOM     20  O   UNL     1      12.852  80.137   0.160  1.00  0.00    -0.507 OA
ATOM     21  H   UNL     1      12.038  80.700   0.377  1.00  0.00     0.293 HD
ENDBRANCH   5  20
ENDBRANCH   1   2
BRANCH   1  22
ATOM     22  C   UNL     1      15.112  80.650  -5.294  1.00  0.00     0.005 C 
BRANCH  22  23
ATOM     23  C   UNL     1      16.246  80.786  -6.326  1.00  0.00     0.000 C 
BRANCH  23  24
ATOM     24  C   UNL     1      17.386  79.786  -6.088  1.00  0.00    -0.003 C 
ATOM     25  C   UNL     1      17.346  78.658  -7.118  1.00  0.00     0.004 C 
ENDBRANCH  23  24
ENDBRANCH  22  23
ENDBRANCH   1  22
TORSDOF 8
ENDMDL
MODEL 15
REMARK VINA RESULT:    -7.250      2.153      5.061
REMARK INTER + INTRA:         -11.362
REMARK INTER:                 -10.826
REMARK INTRA:                  -0.536
REMARK UNBOUND:                -1.145
REMARK SMILES C=C(C)[C@@H]1CCC(C)=C[C@H]1c1c(O)cc(CCCCC)cc1O.CCCCCc1cc(O)c2c(c1)OC(C)(C)[C@@H]1CCC(C)=C[C@@H]21
REMARK SMILES IDX 16 1 15 2 11 3 12 4 22 5 14 6 21 7 10 8 4 9 5 10 6 11 9 12
REMARK SMILES IDX 7 13 8 14 2 15 3 16 1 17 13 18 23 20 17 22 18 23 19 24 20 25
REMARK H PARENT 13 19 23 21
REMARK Flexibility Score: inf
ROOT
ATOM      1  C   UNL     1      13.022  78.632  -1.950  1.00  0.00     0.036 C 
ENDROOT
BRANCH   1   2
ATOM      2  C   UNL     1      11.608  78.170  -1.710  1.00  0.00    -0.041 A 
ATOM      3  C   UNL     1       8.945  77.362  -1.205  1.00  0.00     0.043 A 
ATOM      4  C   UNL     1       9.216  78.496  -2.006  1.00  0.00     0.123 A 
ATOM      5  C   UNL     1      10.033  76.634  -0.666  1.00  0.00     0.123 A 
ATOM      6  C   UNL     1      10.536  78.893  -2.244  1.00  0.00     0.050 A 
ATOM      7  C   UNL     1      11.349  77.049  -0.912  1.00  0.00     0.050 A 
BRANCH   3   8
ATOM      8  C   UNL     1       7.506  76.904  -0.991  1.00  0.00     0.056 C 
ATOM      9  C   UNL     1       7.383  75.365  -1.123  1.00  0.00     0.026 C 
ATOM     10  C   UNL     1       5.960  74.927  -0.743  1.00  0.00     0.013 C 
ATOM     11  C   UNL     1       5.661  75.297   0.714  1.00  0.00     0.031 C 
ATOM     12  C   UNL     1       6.964  77.406   0.332  1.00  0.00    -0.019 C 
ATOM     13  C   UNL     1       6.065  76.715   1.068  1.00  0.00    -0.077 C 
ATOM     14  C   UNL     1       5.538  77.326   2.337  1.00  0.00     0.039 C 
BRANCH   9  15
ATOM     15  C   UNL     1       7.762  74.884  -2.520  1.00  0.00    -0.076 C 
ATOM     16  C   UNL     1       7.127  75.516  -3.731  1.00  0.00     0.039 C 
ATOM     17  C   UNL     1       8.634  73.877  -2.703  1.00  0.00     0.008 C 
ENDBRANCH   9  15
ENDBRANCH   3   8
BRANCH   4  18
ATOM     18  O   UNL     1       8.171  79.229  -2.569  1.00  0.00    -0.507 OA
ATOM     19  H   UNL     1       8.157  80.243  -2.551  1.00  0.00     0.293 HD
ENDBRANCH   4  18
BRANCH   5  20
ATOM     20  O   UNL     1       9.806  75.498   0.112  1.00  0.00    -0.507 OA
ATOM     21  H   UNL     1       8.934  74.983   0.058  1.00  0.00     0.293 HD
ENDBRANCH   5  20
ENDBRANCH   1   2
BRANCH   1  22
ATOM     22  C   UNL     1      13.219  79.026  -3.421  1.00  0.00     0.005 C 
BRANCH  22  23
ATOM     23  C   UNL     1      13.497  77.817  -4.332  1.00  0.00     0.000 C 
BRANCH  23  24
ATOM     24  C   UNL     1      14.208  78.209  -5.635  1.00  0.00    -0.003 C 
ATOM     25  C   UNL     1      14.804  79.612  -5.531  1.00  0.00     0.004 C 
ENDBRANCH  23  24
ENDBRANCH  22  23
ENDBRANCH   1  22
TORSDOF 8
ENDMDL
