MODEL 1
REMARK VINA RESULT:    -9.998      0.000      0.000
REMARK INTER + INTRA:         -12.993
REMARK INTER:                 -12.921
REMARK INTRA:                  -0.072
REMARK UNBOUND:                -0.072
REMARK SMILES CCn1c(=O)c(-c2cc(NC(=O)Nc3ccccc3)c(F)cc2Br)cc2cnc(NC)cc21
REMARK SMILES IDX 7 1 23 2 24 3 22 4 20 5 21 6 9 7 8 8 6 9 3 10 4 11 33 12
REMARK SMILES IDX 5 13 26 14 32 15 25 16 27 17 29 18 28 19 2 20 1 21 30 22
REMARK SMILES IDX 31 23 10 25 11 26 12 28 13 29 14 31 15 32 19 33 16 34 18 35
REMARK SMILES IDX 17 36
REMARK H PARENT 30 24 10 27 13 30
REMARK Flexibility Score: inf
ROOT
ATOM      1  C   UNL     1      27.196  20.620  32.455  1.00  0.00     0.004 A 
ATOM      2  C   UNL     1      26.744  21.387  31.363  1.00  0.00     0.029 A 
ATOM      3  Br  UNL     1      26.710  20.686  29.576  1.00  0.00    -0.050 Br
ATOM      4  C   UNL     1      26.256  22.680  31.578  1.00  0.00     0.057 A 
ATOM      5  C   UNL     1      26.219  23.220  32.866  1.00  0.00     0.147 A 
ATOM      6  F   UNL     1      25.681  24.453  33.046  1.00  0.00    -0.205 F 
ATOM      7  C   UNL     1      26.682  22.469  33.960  1.00  0.00     0.079 A 
ATOM      8  C   UNL     1      27.144  21.162  33.749  1.00  0.00     0.039 A 
ENDROOT
BRANCH   1   9
ATOM      9  C   UNL     1      27.713  19.246  32.270  1.00  0.00     0.049 A 
ATOM     10  N   UNL     1      27.614  16.872  32.743  1.00  0.00    -0.308 N 
ATOM     11  C   UNL     1      27.127  18.150  32.924  1.00  0.00     0.258 A 
ATOM     12  C   UNL     1      28.727  16.663  31.944  1.00  0.00     0.056 A 
ATOM     13  O   UNL     1      26.137  18.355  33.682  1.00  0.00    -0.269 OA
ATOM     14  C   UNL     1      29.312  17.753  31.255  1.00  0.00     0.018 A 
ATOM     15  C   UNL     1      29.326  15.389  31.787  1.00  0.00     0.073 A 
ATOM     16  C   UNL     1      28.790  19.033  31.415  1.00  0.00     0.026 A 
ATOM     17  C   UNL     1      30.422  17.543  30.427  1.00  0.00     0.123 A 
ATOM     18  C   UNL     1      30.443  15.225  30.949  1.00  0.00     0.127 A 
ATOM     19  N   UNL     1      30.951  16.303  30.295  1.00  0.00    -0.239 NA
BRANCH  10  20
ATOM     20  C   UNL     1      26.935  15.756  33.444  1.00  0.00     0.122 C 
ATOM     21  C   UNL     1      27.613  15.468  34.780  1.00  0.00     0.028 C 
ENDBRANCH  10  20
BRANCH  18  22
ATOM     22  N   UNL     1      31.075  13.947  30.762  1.00  0.00    -0.373 N 
ATOM     23  C   UNL     1      31.441  13.402  29.459  1.00  0.00     0.141 C 
ATOM     24  H   UNL     1      31.286  13.372  31.609  1.00  0.00     0.161 HD
ENDBRANCH  18  22
ENDBRANCH   1   9
BRANCH   7  25
ATOM     25  N   UNL     1      26.638  22.990  35.298  1.00  0.00    -0.305 N 
ATOM     26  C   UNL     1      25.441  23.043  36.088  1.00  0.00     0.323 C 
ATOM     27  H   UNL     1      27.484  23.484  35.662  1.00  0.00     0.171 HD
ATOM     28  O   UNL     1      24.327  22.756  35.571  1.00  0.00    -0.248 OA
ATOM     29  N   UNL     1      25.525  23.423  37.470  1.00  0.00    -0.308 N 
ATOM     30  H   UNL     1      26.466  23.393  37.922  1.00  0.00     0.171 HD
BRANCH  29  31
ATOM     31  C   UNL     1      24.387  23.717  38.298  1.00  0.00     0.042 A 
ATOM     32  C   UNL     1      24.314  23.170  39.588  1.00  0.00     0.026 A 
ATOM     33  C   UNL     1      23.369  24.591  37.867  1.00  0.00     0.026 A 
ATOM     34  C   UNL     1      23.227  23.459  40.421  1.00  0.00     0.002 A 
ATOM     35  C   UNL     1      22.285  24.877  38.702  1.00  0.00     0.002 A 
ATOM     36  C   UNL     1      22.212  24.308  39.976  1.00  0.00     0.000 A 
ENDBRANCH  29  31
ENDBRANCH   7  25
TORSDOF 5
ENDMDL
MODEL 2
REMARK VINA RESULT:    -9.210     13.865     16.344
REMARK INTER + INTRA:         -11.974
REMARK INTER:                 -11.108
REMARK INTRA:                  -0.866
REMARK UNBOUND:                -0.072
REMARK SMILES CCn1c(=O)c(-c2cc(NC(=O)Nc3ccccc3)c(F)cc2Br)cc2cnc(NC)cc21
REMARK SMILES IDX 7 1 23 2 24 3 22 4 20 5 21 6 9 7 8 8 6 9 3 10 4 11 33 12
REMARK SMILES IDX 5 13 26 14 32 15 25 16 27 17 29 18 28 19 2 20 1 21 30 22
REMARK SMILES IDX 31 23 10 25 11 26 12 28 13 29 14 31 15 32 19 33 16 34 18 35
REMARK SMILES IDX 17 36
REMARK H PARENT 30 24 10 27 13 30
REMARK Flexibility Score: inf
ROOT
ATOM      1  C   UNL     1      11.270  22.765  39.555  1.00  0.00     0.004 A 
ATOM      2  C   UNL     1      10.080  23.490  39.349  1.00  0.00     0.029 A 
ATOM      3  Br  UNL     1       8.547  22.704  38.503  1.00  0.00    -0.050 Br
ATOM      4  C   UNL     1       9.979  24.805  39.814  1.00  0.00     0.057 A 
ATOM      5  C   UNL     1      11.052  25.409  40.475  1.00  0.00     0.147 A 
ATOM      6  F   UNL     1      10.898  26.664  40.969  1.00  0.00    -0.205 F 
ATOM      7  C   UNL     1      12.249  24.699  40.672  1.00  0.00     0.079 A 
ATOM      8  C   UNL     1      12.340  23.371  40.232  1.00  0.00     0.039 A 
ENDROOT
BRANCH   1   9
ATOM      9  C   UNL     1      11.414  21.369  39.084  1.00  0.00     0.049 A 
ATOM     10  N   UNL     1      12.110  19.771  37.403  1.00  0.00    -0.308 N 
ATOM     11  C   UNL     1      11.976  21.076  37.831  1.00  0.00     0.258 A 
ATOM     12  C   UNL     1      11.642  18.732  38.191  1.00  0.00     0.056 A 
ATOM     13  O   UNL     1      12.363  22.031  37.101  1.00  0.00    -0.269 OA
ATOM     14  C   UNL     1      11.100  19.010  39.469  1.00  0.00     0.018 A 
ATOM     15  C   UNL     1      11.673  17.379  37.770  1.00  0.00     0.073 A 
ATOM     16  C   UNL     1      11.004  20.327  39.909  1.00  0.00     0.026 A 
ATOM     17  C   UNL     1      10.649  17.962  40.282  1.00  0.00     0.123 A 
ATOM     18  C   UNL     1      11.204  16.359  38.617  1.00  0.00     0.127 A 
ATOM     19  N   UNL     1      10.713  16.681  39.842  1.00  0.00    -0.239 NA
BRANCH  10  20
ATOM     20  C   UNL     1      12.732  19.527  36.079  1.00  0.00     0.122 C 
ATOM     21  C   UNL     1      11.680  19.565  34.974  1.00  0.00     0.028 C 
ENDBRANCH  10  20
BRANCH  18  22
ATOM     22  N   UNL     1      11.222  14.976  38.225  1.00  0.00    -0.373 N 
ATOM     23  C   UNL     1      10.030  14.138  38.140  1.00  0.00     0.141 C 
ATOM     24  H   UNL     1      12.143  14.543  37.984  1.00  0.00     0.161 HD
ENDBRANCH  18  22
ENDBRANCH   1   9
BRANCH   7  25
ATOM     25  N   UNL     1      13.362  25.286  41.366  1.00  0.00    -0.305 N 
ATOM     26  C   UNL     1      14.572  25.698  40.715  1.00  0.00     0.323 C 
ATOM     27  H   UNL     1      13.349  25.283  42.411  1.00  0.00     0.171 HD
ATOM     28  O   UNL     1      14.763  25.423  39.499  1.00  0.00    -0.248 OA
ATOM     29  N   UNL     1      15.560  26.427  41.458  1.00  0.00    -0.308 N 
ATOM     30  H   UNL     1      15.262  26.860  42.361  1.00  0.00     0.171 HD
BRANCH  29  31
ATOM     31  C   UNL     1      16.888  26.704  40.983  1.00  0.00     0.042 A 
ATOM     32  C   UNL     1      17.268  28.033  40.736  1.00  0.00     0.026 A 
ATOM     33  C   UNL     1      17.839  25.679  40.815  1.00  0.00     0.026 A 
ATOM     34  C   UNL     1      18.562  28.330  40.294  1.00  0.00     0.002 A 
ATOM     35  C   UNL     1      19.130  25.980  40.373  1.00  0.00     0.002 A 
ATOM     36  C   UNL     1      19.491  27.304  40.108  1.00  0.00     0.000 A 
ENDBRANCH  29  31
ENDBRANCH   7  25
TORSDOF 5
ENDMDL
MODEL 3
REMARK VINA RESULT:    -8.986     13.420     16.221
REMARK INTER + INTRA:         -11.685
REMARK INTER:                 -11.088
REMARK INTRA:                  -0.596
REMARK UNBOUND:                -0.072
REMARK SMILES CCn1c(=O)c(-c2cc(NC(=O)Nc3ccccc3)c(F)cc2Br)cc2cnc(NC)cc21
REMARK SMILES IDX 7 1 23 2 24 3 22 4 20 5 21 6 9 7 8 8 6 9 3 10 4 11 33 12
REMARK SMILES IDX 5 13 26 14 32 15 25 16 27 17 29 18 28 19 2 20 1 21 30 22
REMARK SMILES IDX 31 23 10 25 11 26 12 28 13 29 14 31 15 32 19 33 16 34 18 35
REMARK SMILES IDX 17 36
REMARK H PARENT 30 24 10 27 13 30
REMARK Flexibility Score: inf
ROOT
ATOM      1  C   UNL     1      11.834  23.529  40.039  1.00  0.00     0.004 A 
ATOM      2  C   UNL     1      10.664  24.198  39.630  1.00  0.00     0.029 A 
ATOM      3  Br  UNL     1       9.126  23.250  38.983  1.00  0.00    -0.050 Br
ATOM      4  C   UNL     1      10.586  25.590  39.741  1.00  0.00     0.057 A 
ATOM      5  C   UNL     1      11.662  26.324  40.248  1.00  0.00     0.147 A 
ATOM      6  F   UNL     1      11.529  27.666  40.401  1.00  0.00    -0.205 F 
ATOM      7  C   UNL     1      12.839  25.667  40.644  1.00  0.00     0.079 A 
ATOM      8  C   UNL     1      12.908  24.269  40.560  1.00  0.00     0.039 A 
ENDROOT
BRANCH   1   9
ATOM      9  C   UNL     1      11.953  22.057  39.944  1.00  0.00     0.049 A 
ATOM     10  N   UNL     1      12.562  20.066  38.707  1.00  0.00    -0.308 N 
ATOM     11  C   UNL     1      12.451  21.438  38.785  1.00  0.00     0.258 A 
ATOM     12  C   UNL     1      12.135  19.275  39.762  1.00  0.00     0.056 A 
ATOM     13  O   UNL     1      12.801  22.164  37.812  1.00  0.00    -0.269 OA
ATOM     14  C   UNL     1      11.659  19.885  40.947  1.00  0.00     0.018 A 
ATOM     15  C   UNL     1      12.143  17.859  39.709  1.00  0.00     0.073 A 
ATOM     16  C   UNL     1      11.585  21.272  41.032  1.00  0.00     0.026 A 
ATOM     17  C   UNL     1      11.249  19.092  42.027  1.00  0.00     0.123 A 
ATOM     18  C   UNL     1      11.718  17.102  40.815  1.00  0.00     0.127 A 
ATOM     19  N   UNL     1      11.289  17.740  41.935  1.00  0.00    -0.239 NA
BRANCH  10  20
ATOM     20  C   UNL     1      13.117  19.476  37.465  1.00  0.00     0.122 C 
ATOM     21  C   UNL     1      14.640  19.419  37.529  1.00  0.00     0.028 C 
ENDBRANCH  10  20
BRANCH  18  22
ATOM     22  N   UNL     1      11.716  15.665  40.798  1.00  0.00    -0.373 N 
ATOM     23  C   UNL     1      10.921  14.841  41.703  1.00  0.00     0.141 C 
ATOM     24  H   UNL     1      12.318  15.178  40.095  1.00  0.00     0.161 HD
ENDBRANCH  18  22
ENDBRANCH   1   9
BRANCH   7  25
ATOM     25  N   UNL     1      13.955  26.392  41.187  1.00  0.00    -0.305 N 
ATOM     26  C   UNL     1      15.258  26.404  40.588  1.00  0.00     0.323 C 
ATOM     27  H   UNL     1      13.853  26.814  42.138  1.00  0.00     0.171 HD
ATOM     28  O   UNL     1      15.515  25.645  39.613  1.00  0.00    -0.248 OA
ATOM     29  N   UNL     1      16.264  27.288  41.104  1.00  0.00    -0.308 N 
ATOM     30  H   UNL     1      15.947  28.073  41.717  1.00  0.00     0.171 HD
BRANCH  29  31
ATOM     31  C   UNL     1      17.652  27.240  40.732  1.00  0.00     0.042 A 
ATOM     32  C   UNL     1      18.321  26.006  40.727  1.00  0.00     0.026 A 
ATOM     33  C   UNL     1      18.342  28.394  40.313  1.00  0.00     0.026 A 
ATOM     34  C   UNL     1      19.666  25.930  40.348  1.00  0.00     0.002 A 
ATOM     35  C   UNL     1      19.686  28.314  39.935  1.00  0.00     0.002 A 
ATOM     36  C   UNL     1      20.348  27.084  39.956  1.00  0.00     0.000 A 
ENDBRANCH  29  31
ENDBRANCH   7  25
TORSDOF 5
ENDMDL
MODEL 4
REMARK VINA RESULT:    -8.932      1.906      2.589
REMARK INTER + INTRA:         -11.615
REMARK INTER:                 -11.418
REMARK INTRA:                  -0.197
REMARK UNBOUND:                -0.072
REMARK SMILES CCn1c(=O)c(-c2cc(NC(=O)Nc3ccccc3)c(F)cc2Br)cc2cnc(NC)cc21
REMARK SMILES IDX 7 1 23 2 24 3 22 4 20 5 21 6 9 7 8 8 6 9 3 10 4 11 33 12
REMARK SMILES IDX 5 13 26 14 32 15 25 16 27 17 29 18 28 19 2 20 1 21 30 22
REMARK SMILES IDX 31 23 10 25 11 26 12 28 13 29 14 31 15 32 19 33 16 34 18 35
REMARK SMILES IDX 17 36
REMARK H PARENT 30 24 10 27 13 30
REMARK Flexibility Score: inf
ROOT
ATOM      1  C   UNL     1      27.139  21.435  31.750  1.00  0.00     0.004 A 
ATOM      2  C   UNL     1      26.833  22.431  30.802  1.00  0.00     0.029 A 
ATOM      3  Br  UNL     1      26.766  22.056  28.921  1.00  0.00    -0.050 Br
ATOM      4  C   UNL     1      26.518  23.724  31.232  1.00  0.00     0.057 A 
ATOM      5  C   UNL     1      26.509  24.038  32.593  1.00  0.00     0.147 A 
ATOM      6  F   UNL     1      26.137  25.285  32.978  1.00  0.00    -0.205 F 
ATOM      7  C   UNL     1      26.828  23.055  33.546  1.00  0.00     0.079 A 
ATOM      8  C   UNL     1      27.117  21.751  33.117  1.00  0.00     0.039 A 
ENDROOT
BRANCH   1   9
ATOM      9  C   UNL     1      27.471  20.053  31.336  1.00  0.00     0.049 A 
ATOM     10  N   UNL     1      29.017  18.451  30.383  1.00  0.00    -0.308 N 
ATOM     11  C   UNL     1      28.715  19.742  30.762  1.00  0.00     0.258 A 
ATOM     12  C   UNL     1      28.071  17.449  30.522  1.00  0.00     0.056 A 
ATOM     13  O   UNL     1      29.558  20.670  30.602  1.00  0.00    -0.269 OA
ATOM     14  C   UNL     1      26.824  17.740  31.126  1.00  0.00     0.018 A 
ATOM     15  C   UNL     1      28.289  16.123  30.073  1.00  0.00     0.073 A 
ATOM     16  C   UNL     1      26.541  19.039  31.539  1.00  0.00     0.026 A 
ATOM     17  C   UNL     1      25.872  16.726  31.291  1.00  0.00     0.123 A 
ATOM     18  C   UNL     1      27.303  15.137  30.256  1.00  0.00     0.127 A 
ATOM     19  N   UNL     1      26.132  15.468  30.860  1.00  0.00    -0.239 NA
BRANCH  10  20
ATOM     20  C   UNL     1      30.356  18.184  29.804  1.00  0.00     0.122 C 
ATOM     21  C   UNL     1      31.134  17.202  30.675  1.00  0.00     0.028 C 
ENDBRANCH  10  20
BRANCH  18  22
ATOM     22  N   UNL     1      27.491  13.781  29.817  1.00  0.00    -0.373 N 
ATOM     23  C   UNL     1      28.397  13.393  28.741  1.00  0.00     0.141 C 
ATOM     24  H   UNL     1      26.949  13.027  30.296  1.00  0.00     0.161 HD
ENDBRANCH  18  22
ENDBRANCH   1   9
BRANCH   7  25
ATOM     25  N   UNL     1      26.809  23.342  34.954  1.00  0.00    -0.305 N 
ATOM     26  C   UNL     1      25.624  23.275  35.759  1.00  0.00     0.323 C 
ATOM     27  H   UNL     1      27.666  23.758  35.383  1.00  0.00     0.171 HD
ATOM     28  O   UNL     1      24.499  23.093  35.218  1.00  0.00    -0.248 OA
ATOM     29  N   UNL     1      25.731  23.414  37.184  1.00  0.00    -0.308 N 
ATOM     30  H   UNL     1      26.677  23.297  37.610  1.00  0.00     0.171 HD
BRANCH  29  31
ATOM     31  C   UNL     1      24.608  23.577  38.067  1.00  0.00     0.042 A 
ATOM     32  C   UNL     1      24.631  22.968  39.331  1.00  0.00     0.026 A 
ATOM     33  C   UNL     1      23.508  24.385  37.717  1.00  0.00     0.026 A 
ATOM     34  C   UNL     1      23.560  23.129  40.216  1.00  0.00     0.002 A 
ATOM     35  C   UNL     1      22.440  24.544  38.605  1.00  0.00     0.002 A 
ATOM     36  C   UNL     1      22.463  23.914  39.851  1.00  0.00     0.000 A 
ENDBRANCH  29  31
ENDBRANCH   7  25
TORSDOF 5
ENDMDL
MODEL 5
REMARK VINA RESULT:    -8.803     13.009     15.937
REMARK INTER + INTRA:         -11.448
REMARK INTER:                 -10.559
REMARK INTRA:                  -0.889
REMARK UNBOUND:                -0.072
REMARK SMILES CCn1c(=O)c(-c2cc(NC(=O)Nc3ccccc3)c(F)cc2Br)cc2cnc(NC)cc21
REMARK SMILES IDX 7 1 23 2 24 3 22 4 20 5 21 6 9 7 8 8 6 9 3 10 4 11 33 12
REMARK SMILES IDX 5 13 26 14 32 15 25 16 27 17 29 18 28 19 2 20 1 21 30 22
REMARK SMILES IDX 31 23 10 25 11 26 12 28 13 29 14 31 15 32 19 33 16 34 18 35
REMARK SMILES IDX 17 36
REMARK H PARENT 30 24 10 27 13 30
REMARK Flexibility Score: inf
ROOT
ATOM      1  C   UNL     1      12.027  23.698  40.023  1.00  0.00     0.004 A 
ATOM      2  C   UNL     1      10.980  24.594  39.733  1.00  0.00     0.029 A 
ATOM      3  Br  UNL     1       9.305  23.999  39.009  1.00  0.00    -0.050 Br
ATOM      4  C   UNL     1      11.131  25.954  40.023  1.00  0.00     0.057 A 
ATOM      5  C   UNL     1      12.314  26.432  40.591  1.00  0.00     0.147 A 
ATOM      6  F   UNL     1      12.403  27.747  40.918  1.00  0.00    -0.205 F 
ATOM      7  C   UNL     1      13.371  25.548  40.870  1.00  0.00     0.079 A 
ATOM      8  C   UNL     1      13.209  24.180  40.607  1.00  0.00     0.039 A 
ENDROOT
BRANCH   1   9
ATOM      9  C   UNL     1      11.903  22.251  39.738  1.00  0.00     0.049 A 
ATOM     10  N   UNL     1      11.268  20.013  40.414  1.00  0.00    -0.308 N 
ATOM     11  C   UNL     1      11.383  21.360  40.691  1.00  0.00     0.258 A 
ATOM     12  C   UNL     1      11.714  19.516  39.200  1.00  0.00     0.056 A 
ATOM     13  O   UNL     1      11.015  21.816  41.811  1.00  0.00    -0.269 OA
ATOM     14  C   UNL     1      12.214  20.404  38.218  1.00  0.00     0.018 A 
ATOM     15  C   UNL     1      11.703  18.133  38.890  1.00  0.00     0.073 A 
ATOM     16  C   UNL     1      12.292  21.767  38.492  1.00  0.00     0.026 A 
ATOM     17  C   UNL     1      12.644  19.911  36.980  1.00  0.00     0.123 A 
ATOM     18  C   UNL     1      12.149  17.681  37.635  1.00  0.00     0.127 A 
ATOM     19  N   UNL     1      12.600  18.581  36.723  1.00  0.00    -0.239 NA
BRANCH  10  20
ATOM     20  C   UNL     1      10.689  19.130  41.454  1.00  0.00     0.122 C 
ATOM     21  C   UNL     1      11.778  18.618  42.393  1.00  0.00     0.028 C 
ENDBRANCH  10  20
BRANCH  18  22
ATOM     22  N   UNL     1      12.149  16.286  37.285  1.00  0.00    -0.373 N 
ATOM     23  C   UNL     1      11.139  15.334  37.735  1.00  0.00     0.141 C 
ATOM     24  H   UNL     1      12.917  15.931  36.671  1.00  0.00     0.161 HD
ENDBRANCH  18  22
ENDBRANCH   1   9
BRANCH   7  25
ATOM     25  N   UNL     1      14.592  26.006  41.473  1.00  0.00    -0.305 N 
ATOM     26  C   UNL     1      15.796  26.253  40.732  1.00  0.00     0.323 C 
ATOM     27  H   UNL     1      14.650  26.025  42.516  1.00  0.00     0.171 HD
ATOM     28  O   UNL     1      15.868  25.933  39.514  1.00  0.00    -0.248 OA
ATOM     29  N   UNL     1      16.914  26.868  41.389  1.00  0.00    -0.308 N 
ATOM     30  H   UNL     1      16.733  27.352  42.297  1.00  0.00     0.171 HD
BRANCH  29  31
ATOM     31  C   UNL     1      18.230  26.970  40.819  1.00  0.00     0.042 A 
ATOM     32  C   UNL     1      18.954  25.799  40.543  1.00  0.00     0.026 A 
ATOM     33  C   UNL     1      18.789  28.216  40.475  1.00  0.00     0.026 A 
ATOM     34  C   UNL     1      20.227  25.872  39.968  1.00  0.00     0.002 A 
ATOM     35  C   UNL     1      20.061  28.285  39.902  1.00  0.00     0.002 A 
ATOM     36  C   UNL     1      20.782  27.114  39.652  1.00  0.00     0.000 A 
ENDBRANCH  29  31
ENDBRANCH   7  25
TORSDOF 5
ENDMDL
MODEL 6
REMARK VINA RESULT:    -8.430     10.380     17.202
REMARK INTER + INTRA:         -10.966
REMARK INTER:                 -10.122
REMARK INTRA:                  -0.844
REMARK UNBOUND:                -0.072
REMARK SMILES CCn1c(=O)c(-c2cc(NC(=O)Nc3ccccc3)c(F)cc2Br)cc2cnc(NC)cc21
REMARK SMILES IDX 7 1 23 2 24 3 22 4 20 5 21 6 9 7 8 8 6 9 3 10 4 11 33 12
REMARK SMILES IDX 5 13 26 14 32 15 25 16 27 17 29 18 28 19 2 20 1 21 30 22
REMARK SMILES IDX 31 23 10 25 11 26 12 28 13 29 14 31 15 32 19 33 16 34 18 35
REMARK SMILES IDX 17 36
REMARK H PARENT 30 24 10 27 13 30
REMARK Flexibility Score: inf
ROOT
ATOM      1  C   UNL     1      14.549  26.726  41.594  1.00  0.00     0.004 A 
ATOM      2  C   UNL     1      14.454  28.131  41.552  1.00  0.00     0.029 A 
ATOM      3  Br  UNL     1      12.764  29.037  41.644  1.00  0.00    -0.050 Br
ATOM      4  C   UNL     1      15.618  28.904  41.492  1.00  0.00     0.057 A 
ATOM      5  C   UNL     1      16.875  28.294  41.468  1.00  0.00     0.147 A 
ATOM      6  F   UNL     1      17.985  29.075  41.473  1.00  0.00    -0.205 F 
ATOM      7  C   UNL     1      16.980  26.893  41.494  1.00  0.00     0.079 A 
ATOM      8  C   UNL     1      15.814  26.118  41.582  1.00  0.00     0.039 A 
ENDROOT
BRANCH   1   9
ATOM      9  C   UNL     1      13.342  25.874  41.664  1.00  0.00     0.049 A 
ATOM     10  N   UNL     1      11.761  24.365  40.620  1.00  0.00    -0.308 N 
ATOM     11  C   UNL     1      12.885  25.160  40.544  1.00  0.00     0.258 A 
ATOM     12  C   UNL     1      11.037  24.300  41.800  1.00  0.00     0.056 A 
ATOM     13  O   UNL     1      13.528  25.256  39.460  1.00  0.00    -0.269 OA
ATOM     14  C   UNL     1      11.500  24.990  42.946  1.00  0.00     0.018 A 
ATOM     15  C   UNL     1       9.828  23.570  41.916  1.00  0.00     0.073 A 
ATOM     16  C   UNL     1      12.657  25.761  42.870  1.00  0.00     0.026 A 
ATOM     17  C   UNL     1      10.787  24.909  44.148  1.00  0.00     0.123 A 
ATOM     18  C   UNL     1       9.141  23.520  43.142  1.00  0.00     0.127 A 
ATOM     19  N   UNL     1       9.643  24.185  44.216  1.00  0.00    -0.239 NA
BRANCH  10  20
ATOM     20  C   UNL     1      11.345  23.620  39.408  1.00  0.00     0.122 C 
ATOM     21  C   UNL     1      12.013  22.248  39.362  1.00  0.00     0.028 C 
ENDBRANCH  10  20
BRANCH  18  22
ATOM     22  N   UNL     1       7.914  22.788  43.298  1.00  0.00    -0.373 N 
ATOM     23  C   UNL     1       7.738  21.398  42.889  1.00  0.00     0.141 C 
ATOM     24  H   UNL     1       7.098  23.277  43.731  1.00  0.00     0.161 HD
ENDBRANCH  18  22
ENDBRANCH   1   9
BRANCH   7  25
ATOM     25  N   UNL     1      18.259  26.238  41.489  1.00  0.00    -0.305 N 
ATOM     26  C   UNL     1      18.933  25.827  40.291  1.00  0.00     0.323 C 
ATOM     27  H   UNL     1      18.651  25.916  42.403  1.00  0.00     0.171 HD
ATOM     28  O   UNL     1      18.348  25.902  39.177  1.00  0.00    -0.248 OA
ATOM     29  N   UNL     1      20.279  25.333  40.374  1.00  0.00    -0.308 N 
ATOM     30  H   UNL     1      20.813  25.532  41.249  1.00  0.00     0.171 HD
BRANCH  29  31
ATOM     31  C   UNL     1      20.975  24.700  39.287  1.00  0.00     0.042 A 
ATOM     32  C   UNL     1      22.103  25.326  38.733  1.00  0.00     0.026 A 
ATOM     33  C   UNL     1      20.589  23.434  38.804  1.00  0.00     0.026 A 
ATOM     34  C   UNL     1      22.810  24.719  37.690  1.00  0.00     0.002 A 
ATOM     35  C   UNL     1      21.298  22.831  37.762  1.00  0.00     0.002 A 
ATOM     36  C   UNL     1      22.405  23.474  37.202  1.00  0.00     0.000 A 
ENDBRANCH  29  31
ENDBRANCH   7  25
TORSDOF 5
ENDMDL
MODEL 7
REMARK VINA RESULT:    -8.388     13.934     21.105
REMARK INTER + INTRA:         -10.913
REMARK INTER:                 -10.563
REMARK INTRA:                  -0.350
REMARK UNBOUND:                -0.072
REMARK SMILES CCn1c(=O)c(-c2cc(NC(=O)Nc3ccccc3)c(F)cc2Br)cc2cnc(NC)cc21
REMARK SMILES IDX 7 1 23 2 24 3 22 4 20 5 21 6 9 7 8 8 6 9 3 10 4 11 33 12
REMARK SMILES IDX 5 13 26 14 32 15 25 16 27 17 29 18 28 19 2 20 1 21 30 22
REMARK SMILES IDX 31 23 10 25 11 26 12 28 13 29 14 31 15 32 19 33 16 34 18 35
REMARK SMILES IDX 17 36
REMARK H PARENT 30 24 10 27 13 30
REMARK Flexibility Score: inf
ROOT
ATOM      1  C   UNL     1      10.803  28.267  42.061  1.00  0.00     0.004 A 
ATOM      2  C   UNL     1      10.349  27.857  43.330  1.00  0.00     0.029 A 
ATOM      3  Br  UNL     1       8.803  28.639  44.156  1.00  0.00    -0.050 Br
ATOM      4  C   UNL     1      11.003  26.817  43.999  1.00  0.00     0.057 A 
ATOM      5  C   UNL     1      12.107  26.184  43.421  1.00  0.00     0.147 A 
ATOM      6  F   UNL     1      12.678  25.137  44.068  1.00  0.00    -0.205 F 
ATOM      7  C   UNL     1      12.577  26.597  42.162  1.00  0.00     0.079 A 
ATOM      8  C   UNL     1      11.905  27.620  41.479  1.00  0.00     0.039 A 
ENDROOT
BRANCH   1   9
ATOM      9  C   UNL     1      10.135  29.359  41.320  1.00  0.00     0.049 A 
ATOM     10  N   UNL     1       9.833  31.717  40.855  1.00  0.00    -0.308 N 
ATOM     11  C   UNL     1      10.458  30.706  41.554  1.00  0.00     0.258 A 
ATOM     12  C   UNL     1       8.837  31.413  39.941  1.00  0.00     0.056 A 
ATOM     13  O   UNL     1      11.340  30.977  42.418  1.00  0.00    -0.269 OA
ATOM     14  C   UNL     1       8.520  30.060  39.672  1.00  0.00     0.018 A 
ATOM     15  C   UNL     1       8.099  32.409  39.255  1.00  0.00     0.073 A 
ATOM     16  C   UNL     1       9.183  29.044  40.355  1.00  0.00     0.026 A 
ATOM     17  C   UNL     1       7.531  29.745  38.731  1.00  0.00     0.123 A 
ATOM     18  C   UNL     1       7.110  32.048  38.322  1.00  0.00     0.127 A 
ATOM     19  N   UNL     1       6.862  30.732  38.088  1.00  0.00    -0.239 NA
BRANCH  10  20
ATOM     20  C   UNL     1      10.236  33.116  41.133  1.00  0.00     0.122 C 
ATOM     21  C   UNL     1       9.422  33.692  42.288  1.00  0.00     0.028 C 
ENDBRANCH  10  20
BRANCH  18  22
ATOM     22  N   UNL     1       6.345  33.031  37.605  1.00  0.00    -0.373 N 
ATOM     23  C   UNL     1       6.345  34.455  37.925  1.00  0.00     0.141 C 
ATOM     24  H   UNL     1       5.752  32.710  36.806  1.00  0.00     0.161 HD
ENDBRANCH  18  22
ENDBRANCH   1   9
BRANCH   7  25
ATOM     25  N   UNL     1      13.698  25.953  41.534  1.00  0.00    -0.305 N 
ATOM     26  C   UNL     1      15.004  26.541  41.451  1.00  0.00     0.323 C 
ATOM     27  H   UNL     1      13.522  25.080  40.987  1.00  0.00     0.171 HD
ATOM     28  O   UNL     1      15.185  27.736  41.811  1.00  0.00    -0.248 OA
ATOM     29  N   UNL     1      16.100  25.758  40.956  1.00  0.00    -0.308 N 
ATOM     30  H   UNL     1      15.975  24.721  40.922  1.00  0.00     0.171 HD
BRANCH  29  31
ATOM     31  C   UNL     1      17.394  26.293  40.629  1.00  0.00     0.042 A 
ATOM     32  C   UNL     1      17.519  27.660  40.334  1.00  0.00     0.026 A 
ATOM     33  C   UNL     1      18.551  25.490  40.655  1.00  0.00     0.026 A 
ATOM     34  C   UNL     1      18.771  28.208  40.034  1.00  0.00     0.002 A 
ATOM     35  C   UNL     1      19.799  26.042  40.355  1.00  0.00     0.002 A 
ATOM     36  C   UNL     1      19.909  27.399  40.040  1.00  0.00     0.000 A 
ENDBRANCH  29  31
ENDBRANCH   7  25
TORSDOF 5
ENDMDL
MODEL 8
REMARK VINA RESULT:    -8.324     13.352     16.276
REMARK INTER + INTRA:         -10.830
REMARK INTER:                 -10.517
REMARK INTRA:                  -0.313
REMARK UNBOUND:                -0.072
REMARK SMILES CCn1c(=O)c(-c2cc(NC(=O)Nc3ccccc3)c(F)cc2Br)cc2cnc(NC)cc21
REMARK SMILES IDX 7 1 23 2 24 3 22 4 20 5 21 6 9 7 8 8 6 9 3 10 4 11 33 12
REMARK SMILES IDX 5 13 26 14 32 15 25 16 27 17 29 18 28 19 2 20 1 21 30 22
REMARK SMILES IDX 31 23 10 25 11 26 12 28 13 29 14 31 15 32 19 33 16 34 18 35
REMARK SMILES IDX 17 36
REMARK H PARENT 30 24 10 27 13 30
REMARK Flexibility Score: inf
ROOT
ATOM      1  C   UNL     1      11.757  23.467  40.475  1.00  0.00     0.004 A 
ATOM      2  C   UNL     1      10.910  23.717  41.572  1.00  0.00     0.029 A 
ATOM      3  Br  UNL     1       9.572  22.459  42.130  1.00  0.00    -0.050 Br
ATOM      4  C   UNL     1      11.070  24.889  42.320  1.00  0.00     0.057 A 
ATOM      5  C   UNL     1      12.059  25.817  41.983  1.00  0.00     0.147 A 
ATOM      6  F   UNL     1      12.228  26.912  42.766  1.00  0.00    -0.205 F 
ATOM      7  C   UNL     1      12.899  25.583  40.880  1.00  0.00     0.079 A 
ATOM      8  C   UNL     1      12.757  24.396  40.148  1.00  0.00     0.039 A 
ENDROOT
BRANCH   1   9
ATOM      9  C   UNL     1      11.623  22.237  39.664  1.00  0.00     0.049 A 
ATOM     10  N   UNL     1      10.679  21.045  37.779  1.00  0.00    -0.308 N 
ATOM     11  C   UNL     1      10.794  22.195  38.531  1.00  0.00     0.258 A 
ATOM     12  C   UNL     1      11.350  19.895  38.165  1.00  0.00     0.056 A 
ATOM     13  O   UNL     1      10.154  23.236  38.209  1.00  0.00    -0.269 OA
ATOM     14  C   UNL     1      12.212  19.929  39.287  1.00  0.00     0.018 A 
ATOM     15  C   UNL     1      11.206  18.661  37.484  1.00  0.00     0.073 A 
ATOM     16  C   UNL     1      12.351  21.105  40.019  1.00  0.00     0.026 A 
ATOM     17  C   UNL     1      12.912  18.777  39.668  1.00  0.00     0.123 A 
ATOM     18  C   UNL     1      11.924  17.527  37.905  1.00  0.00     0.127 A 
ATOM     19  N   UNL     1      12.754  17.622  38.976  1.00  0.00    -0.239 NA
BRANCH  10  20
ATOM     20  C   UNL     1       9.805  21.073  36.582  1.00  0.00     0.122 C 
ATOM     21  C   UNL     1      10.632  21.275  35.315  1.00  0.00     0.028 C 
ENDBRANCH  10  20
BRANCH  18  22
ATOM     22  N   UNL     1      11.805  16.260  37.236  1.00  0.00    -0.373 N 
ATOM     23  C   UNL     1      11.122  15.101  37.803  1.00  0.00     0.141 C 
ATOM     24  H   UNL     1      12.232  16.160  36.287  1.00  0.00     0.161 HD
ENDBRANCH  18  22
ENDBRANCH   1   9
BRANCH   7  25
ATOM     25  N   UNL     1      13.937  26.509  40.520  1.00  0.00    -0.305 N 
ATOM     26  C   UNL     1      15.331  26.169  40.504  1.00  0.00     0.323 C 
ATOM     27  H   UNL     1      13.681  27.516  40.404  1.00  0.00     0.171 HD
ATOM     28  O   UNL     1      15.716  25.054  40.952  1.00  0.00    -0.248 OA
ATOM     29  N   UNL     1      16.279  27.105  39.971  1.00  0.00    -0.308 N 
ATOM     30  H   UNL     1      15.909  27.882  39.379  1.00  0.00     0.171 HD
BRANCH  29  31
ATOM     31  C   UNL     1      17.705  26.970  40.094  1.00  0.00     0.042 A 
ATOM     32  C   UNL     1      18.287  25.695  40.005  1.00  0.00     0.026 A 
ATOM     33  C   UNL     1      18.541  28.094  40.243  1.00  0.00     0.026 A 
ATOM     34  C   UNL     1      19.674  25.540  40.100  1.00  0.00     0.002 A 
ATOM     35  C   UNL     1      19.927  27.935  40.337  1.00  0.00     0.002 A 
ATOM     36  C   UNL     1      20.493  26.659  40.270  1.00  0.00     0.000 A 
ENDBRANCH  29  31
ENDBRANCH   7  25
TORSDOF 5
ENDMDL
MODEL 9
REMARK VINA RESULT:    -8.290     16.032     17.784
REMARK INTER + INTRA:         -10.786
REMARK INTER:                  -9.826
REMARK INTRA:                  -0.960
REMARK UNBOUND:                -0.072
REMARK SMILES CCn1c(=O)c(-c2cc(NC(=O)Nc3ccccc3)c(F)cc2Br)cc2cnc(NC)cc21
REMARK SMILES IDX 7 1 23 2 24 3 22 4 20 5 21 6 9 7 8 8 6 9 3 10 4 11 33 12
REMARK SMILES IDX 5 13 26 14 32 15 25 16 27 17 29 18 28 19 2 20 1 21 30 22
REMARK SMILES IDX 31 23 10 25 11 26 12 28 13 29 14 31 15 32 19 33 16 34 18 35
REMARK SMILES IDX 17 36
REMARK H PARENT 30 24 10 27 13 30
REMARK Flexibility Score: inf
ROOT
ATOM      1  C   UNL     1      11.476  21.906  38.028  1.00  0.00     0.004 A 
ATOM      2  C   UNL     1      12.862  21.849  38.268  1.00  0.00     0.029 A 
ATOM      3  Br  UNL     1      13.982  20.526  37.445  1.00  0.00    -0.050 Br
ATOM      4  C   UNL     1      13.464  22.810  39.089  1.00  0.00     0.057 A 
ATOM      5  C   UNL     1      12.700  23.821  39.677  1.00  0.00     0.147 A 
ATOM      6  F   UNL     1      13.325  24.772  40.415  1.00  0.00    -0.205 F 
ATOM      7  C   UNL     1      11.313  23.876  39.455  1.00  0.00     0.079 A 
ATOM      8  C   UNL     1      10.714  22.931  38.611  1.00  0.00     0.039 A 
ENDROOT
BRANCH   1   9
ATOM      9  C   UNL     1      10.803  20.912  37.161  1.00  0.00     0.049 A 
ATOM     10  N   UNL     1       9.754  18.752  36.849  1.00  0.00    -0.308 N 
ATOM     11  C   UNL     1      10.384  19.669  37.664  1.00  0.00     0.258 A 
ATOM     12  C   UNL     1       9.571  19.031  35.504  1.00  0.00     0.056 A 
ATOM     13  O   UNL     1      10.590  19.407  38.882  1.00  0.00    -0.269 OA
ATOM     14  C   UNL     1       9.961  20.290  34.989  1.00  0.00     0.018 A 
ATOM     15  C   UNL     1       9.009  18.096  34.599  1.00  0.00     0.073 A 
ATOM     16  C   UNL     1      10.563  21.225  35.827  1.00  0.00     0.026 A 
ATOM     17  C   UNL     1       9.756  20.587  33.636  1.00  0.00     0.123 A 
ATOM     18  C   UNL     1       8.826  18.436  33.247  1.00  0.00     0.127 A 
ATOM     19  N   UNL     1       9.200  19.667  32.811  1.00  0.00    -0.239 NA
BRANCH  10  20
ATOM     20  C   UNL     1       9.315  17.468  37.446  1.00  0.00     0.122 C 
ATOM     21  C   UNL     1      10.466  16.466  37.474  1.00  0.00     0.028 C 
ENDBRANCH  10  20
BRANCH  18  22
ATOM     22  N   UNL     1       8.256  17.515  32.301  1.00  0.00    -0.373 N 
ATOM     23  C   UNL     1       7.060  17.793  31.513  1.00  0.00     0.141 C 
ATOM     24  H   UNL     1       8.725  16.590  32.168  1.00  0.00     0.161 HD
ENDBRANCH  18  22
ENDBRANCH   1   9
BRANCH   7  25
ATOM     25  N   UNL     1      10.504  24.915  40.031  1.00  0.00    -0.305 N 
ATOM     26  C   UNL     1      10.296  26.191  39.410  1.00  0.00     0.323 C 
ATOM     27  H   UNL     1      10.167  24.791  41.012  1.00  0.00     0.171 HD
ATOM     28  O   UNL     1      10.947  26.508  38.377  1.00  0.00    -0.248 OA
ATOM     29  N   UNL     1       9.340  27.102  39.974  1.00  0.00    -0.308 N 
ATOM     30  H   UNL     1       8.644  26.714  40.649  1.00  0.00     0.171 HD
BRANCH  29  31
ATOM     31  C   UNL     1       9.199  28.476  39.574  1.00  0.00     0.042 A 
ATOM     32  C   UNL     1       8.547  28.779  38.368  1.00  0.00     0.026 A 
ATOM     33  C   UNL     1       9.647  29.531  40.393  1.00  0.00     0.026 A 
ATOM     34  C   UNL     1       8.378  30.109  37.968  1.00  0.00     0.002 A 
ATOM     35  C   UNL     1       9.477  30.858  39.990  1.00  0.00     0.002 A 
ATOM     36  C   UNL     1       8.847  31.148  38.777  1.00  0.00     0.000 A 
ENDBRANCH  29  31
ENDBRANCH   7  25
TORSDOF 5
ENDMDL
MODEL 10
REMARK VINA RESULT:    -8.201     12.089     19.888
REMARK INTER + INTRA:         -10.670
REMARK INTER:                 -10.067
REMARK INTRA:                  -0.603
REMARK UNBOUND:                -0.072
REMARK SMILES CCn1c(=O)c(-c2cc(NC(=O)Nc3ccccc3)c(F)cc2Br)cc2cnc(NC)cc21
REMARK SMILES IDX 7 1 23 2 24 3 22 4 20 5 21 6 9 7 8 8 6 9 3 10 4 11 33 12
REMARK SMILES IDX 5 13 26 14 32 15 25 16 27 17 29 18 28 19 2 20 1 21 30 22
REMARK SMILES IDX 31 23 10 25 11 26 12 28 13 29 14 31 15 32 19 33 16 34 18 35
REMARK SMILES IDX 17 36
REMARK H PARENT 30 24 10 27 13 30
REMARK Flexibility Score: inf
ROOT
ATOM      1  C   UNL     1      12.419  26.945  41.866  1.00  0.00     0.004 A 
ATOM      2  C   UNL     1      11.596  26.757  40.738  1.00  0.00     0.029 A 
ATOM      3  Br  UNL     1       9.855  27.553  40.608  1.00  0.00    -0.050 Br
ATOM      4  C   UNL     1      12.068  26.014  39.651  1.00  0.00     0.057 A 
ATOM      5  C   UNL     1      13.346  25.450  39.676  1.00  0.00     0.147 A 
ATOM      6  F   UNL     1      13.796  24.789  38.580  1.00  0.00    -0.205 F 
ATOM      7  C   UNL     1      14.168  25.619  40.804  1.00  0.00     0.079 A 
ATOM      8  C   UNL     1      13.707  26.387  41.882  1.00  0.00     0.039 A 
ENDROOT
BRANCH   1   9
ATOM      9  C   UNL     1      11.959  27.729  43.033  1.00  0.00     0.049 A 
ATOM     10  N   UNL     1      11.581  29.855  44.130  1.00  0.00    -0.308 N 
ATOM     11  C   UNL     1      12.015  29.133  43.038  1.00  0.00     0.258 A 
ATOM     12  C   UNL     1      11.125  29.196  45.260  1.00  0.00     0.056 A 
ATOM     13  O   UNL     1      12.469  29.725  42.019  1.00  0.00    -0.269 OA
ATOM     14  C   UNL     1      11.035  27.783  45.260  1.00  0.00     0.018 A 
ATOM     15  C   UNL     1      10.746  29.878  46.443  1.00  0.00     0.073 A 
ATOM     16  C   UNL     1      11.441  27.063  44.140  1.00  0.00     0.026 A 
ATOM     17  C   UNL     1      10.552  27.112  46.390  1.00  0.00     0.123 A 
ATOM     18  C   UNL     1      10.272  29.163  47.557  1.00  0.00     0.127 A 
ATOM     19  N   UNL     1      10.186  27.808  47.494  1.00  0.00    -0.239 NA
BRANCH  10  20
ATOM     20  C   UNL     1      11.645  31.335  44.063  1.00  0.00     0.122 C 
ATOM     21  C   UNL     1      12.976  31.842  44.612  1.00  0.00     0.028 C 
ENDBRANCH  10  20
BRANCH  18  22
ATOM     22  N   UNL     1       9.875  29.822  48.772  1.00  0.00    -0.373 N 
ATOM     23  C   UNL     1      10.050  29.249  50.103  1.00  0.00     0.141 C 
ATOM     24  H   UNL     1       9.437  30.768  48.700  1.00  0.00     0.161 HD
ENDBRANCH  18  22
ENDBRANCH   1   9
BRANCH   7  25
ATOM     25  N   UNL     1      15.495  25.067  40.852  1.00  0.00    -0.305 N 
ATOM     26  C   UNL     1      16.675  25.815  40.525  1.00  0.00     0.323 C 
ATOM     27  H   UNL     1      15.595  24.037  40.993  1.00  0.00     0.171 HD
ATOM     28  O   UNL     1      16.576  26.973  40.035  1.00  0.00    -0.248 OA
ATOM     29  N   UNL     1      17.966  25.234  40.763  1.00  0.00    -0.308 N 
ATOM     30  H   UNL     1      18.013  24.408  41.401  1.00  0.00     0.171 HD
BRANCH  29  31
ATOM     31  C   UNL     1      19.203  25.790  40.285  1.00  0.00     0.042 A 
ATOM     32  C   UNL     1      20.120  24.960  39.621  1.00  0.00     0.026 A 
ATOM     33  C   UNL     1      19.491  27.163  40.413  1.00  0.00     0.026 A 
ATOM     34  C   UNL     1      21.320  25.482  39.128  1.00  0.00     0.002 A 
ATOM     35  C   UNL     1      20.691  27.680  39.919  1.00  0.00     0.002 A 
ATOM     36  C   UNL     1      21.608  26.840  39.281  1.00  0.00     0.000 A 
ENDBRANCH  29  31
ENDBRANCH   7  25
TORSDOF 5
ENDMDL
MODEL 11
REMARK VINA RESULT:    -8.200     10.651     17.199
REMARK INTER + INTRA:         -10.669
REMARK INTER:                  -9.613
REMARK INTRA:                  -1.056
REMARK UNBOUND:                -0.072
REMARK SMILES CCn1c(=O)c(-c2cc(NC(=O)Nc3ccccc3)c(F)cc2Br)cc2cnc(NC)cc21
REMARK SMILES IDX 7 1 23 2 24 3 22 4 20 5 21 6 9 7 8 8 6 9 3 10 4 11 33 12
REMARK SMILES IDX 5 13 26 14 32 15 25 16 27 17 29 18 28 19 2 20 1 21 30 22
REMARK SMILES IDX 31 23 10 25 11 26 12 28 13 29 14 31 15 32 19 33 16 34 18 35
REMARK SMILES IDX 17 36
REMARK H PARENT 30 24 10 27 13 30
REMARK Flexibility Score: inf
ROOT
ATOM      1  C   UNL     1      14.191  26.678  41.465  1.00  0.00     0.004 A 
ATOM      2  C   UNL     1      14.220  28.084  41.547  1.00  0.00     0.029 A 
ATOM      3  Br  UNL     1      12.612  29.127  41.651  1.00  0.00    -0.050 Br
ATOM      4  C   UNL     1      15.448  28.751  41.608  1.00  0.00     0.057 A 
ATOM      5  C   UNL     1      16.647  28.035  41.581  1.00  0.00     0.147 A 
ATOM      6  F   UNL     1      17.819  28.708  41.706  1.00  0.00    -0.205 F 
ATOM      7  C   UNL     1      16.629  26.632  41.483  1.00  0.00     0.079 A 
ATOM      8  C   UNL     1      15.399  25.962  41.451  1.00  0.00     0.039 A 
ENDROOT
BRANCH   1   9
ATOM      9  C   UNL     1      12.913  25.935  41.405  1.00  0.00     0.049 A 
ATOM     10  N   UNL     1      11.063  24.826  42.507  1.00  0.00    -0.308 N 
ATOM     11  C   UNL     1      12.257  25.514  42.573  1.00  0.00     0.258 A 
ATOM     12  C   UNL     1      10.520  24.498  41.275  1.00  0.00     0.056 A 
ATOM     13  O   UNL     1      12.779  25.783  43.692  1.00  0.00    -0.269 OA
ATOM     14  C   UNL     1      11.154  24.940  40.089  1.00  0.00     0.018 A 
ATOM     15  C   UNL     1       9.344  23.720  41.140  1.00  0.00     0.073 A 
ATOM     16  C   UNL     1      12.339  25.667  40.166  1.00  0.00     0.026 A 
ATOM     17  C   UNL     1      10.597  24.634  38.841  1.00  0.00     0.123 A 
ATOM     18  C   UNL     1       8.823  23.431  39.866  1.00  0.00     0.127 A 
ATOM     19  N   UNL     1       9.461  23.899  38.762  1.00  0.00    -0.239 NA
BRANCH  10  20
ATOM     20  C   UNL     1      10.410  24.430  43.777  1.00  0.00     0.122 C 
ATOM     21  C   UNL     1      10.947  23.087  44.264  1.00  0.00     0.028 C 
ENDBRANCH  10  20
BRANCH  18  22
ATOM     22  N   UNL     1       7.630  22.648  39.692  1.00  0.00    -0.373 N 
ATOM     23  C   UNL     1       7.525  21.518  38.774  1.00  0.00     0.141 C 
ATOM     24  H   UNL     1       6.787  22.899  40.256  1.00  0.00     0.161 HD
ENDBRANCH  18  22
ENDBRANCH   1   9
BRANCH   7  25
ATOM     25  N   UNL     1      17.846  25.867  41.473  1.00  0.00    -0.305 N 
ATOM     26  C   UNL     1      18.668  25.704  40.308  1.00  0.00     0.323 C 
ATOM     27  H   UNL     1      18.068  25.284  42.311  1.00  0.00     0.171 HD
ATOM     28  O   UNL     1      18.269  26.122  39.187  1.00  0.00    -0.248 OA
ATOM     29  N   UNL     1      19.947  25.065  40.433  1.00  0.00    -0.308 N 
ATOM     30  H   UNL     1      20.351  24.977  41.392  1.00  0.00     0.171 HD
BRANCH  29  31
ATOM     31  C   UNL     1      20.759  24.658  39.318  1.00  0.00     0.042 A 
ATOM     32  C   UNL     1      21.797  25.494  38.879  1.00  0.00     0.026 A 
ATOM     33  C   UNL     1      20.576  23.409  38.693  1.00  0.00     0.026 A 
ATOM     34  C   UNL     1      22.614  25.109  37.811  1.00  0.00     0.002 A 
ATOM     35  C   UNL     1      21.395  23.028  37.626  1.00  0.00     0.002 A 
ATOM     36  C   UNL     1      22.410  23.879  37.182  1.00  0.00     0.000 A 
ENDBRANCH  29  31
ENDBRANCH   7  25
TORSDOF 5
ENDMDL
MODEL 12
REMARK VINA RESULT:    -8.156     15.298     17.432
REMARK INTER + INTRA:         -10.612
REMARK INTER:                 -10.433
REMARK INTRA:                  -0.179
REMARK UNBOUND:                -0.072
REMARK SMILES CCn1c(=O)c(-c2cc(NC(=O)Nc3ccccc3)c(F)cc2Br)cc2cnc(NC)cc21
REMARK SMILES IDX 7 1 23 2 24 3 22 4 20 5 21 6 9 7 8 8 6 9 3 10 4 11 33 12
REMARK SMILES IDX 5 13 26 14 32 15 25 16 27 17 29 18 28 19 2 20 1 21 30 22
REMARK SMILES IDX 31 23 10 25 11 26 12 28 13 29 14 31 15 32 19 33 16 34 18 35
REMARK SMILES IDX 17 36
REMARK H PARENT 30 24 10 27 13 30
REMARK Flexibility Score: inf
ROOT
ATOM      1  C   UNL     1      10.511  20.267  37.315  1.00  0.00     0.004 A 
ATOM      2  C   UNL     1      11.096  19.143  37.930  1.00  0.00     0.029 A 
ATOM      3  Br  UNL     1      10.996  17.392  37.150  1.00  0.00    -0.050 Br
ATOM      4  C   UNL     1      11.818  19.299  39.118  1.00  0.00     0.057 A 
ATOM      5  C   UNL     1      11.959  20.559  39.704  1.00  0.00     0.147 A 
ATOM      6  F   UNL     1      12.719  20.684  40.821  1.00  0.00    -0.205 F 
ATOM      7  C   UNL     1      11.365  21.685  39.106  1.00  0.00     0.079 A 
ATOM      8  C   UNL     1      10.666  21.533  37.901  1.00  0.00     0.039 A 
ENDROOT
BRANCH   1   9
ATOM      9  C   UNL     1       9.745  20.145  36.055  1.00  0.00     0.049 A 
ATOM     10  N   UNL     1       7.734  19.515  34.861  1.00  0.00    -0.308 N 
ATOM     11  C   UNL     1       8.442  19.621  36.041  1.00  0.00     0.258 A 
ATOM     12  C   UNL     1       8.326  19.882  33.663  1.00  0.00     0.056 A 
ATOM     13  O   UNL     1       7.924  19.251  37.132  1.00  0.00    -0.269 OA
ATOM     14  C   UNL     1       9.627  20.439  33.665  1.00  0.00     0.018 A 
ATOM     15  C   UNL     1       7.683  19.717  32.411  1.00  0.00     0.073 A 
ATOM     16  C   UNL     1      10.320  20.577  34.864  1.00  0.00     0.026 A 
ATOM     17  C   UNL     1      10.221  20.835  32.460  1.00  0.00     0.123 A 
ATOM     18  C   UNL     1       8.320  20.124  31.225  1.00  0.00     0.127 A 
ATOM     19  N   UNL     1       9.562  20.671  31.287  1.00  0.00    -0.239 NA
BRANCH  10  20
ATOM     20  C   UNL     1       6.355  18.975  34.917  1.00  0.00     0.122 C 
ATOM     21  C   UNL     1       6.365  17.455  34.781  1.00  0.00     0.028 C 
ENDBRANCH  10  20
BRANCH  18  22
ATOM     22  N   UNL     1       7.697  19.975  29.938  1.00  0.00    -0.373 N 
ATOM     23  C   UNL     1       8.415  20.065  28.670  1.00  0.00     0.141 C 
ATOM     24  H   UNL     1       6.669  19.789  29.904  1.00  0.00     0.161 HD
ENDBRANCH  18  22
ENDBRANCH   1   9
BRANCH   7  25
ATOM     25  N   UNL     1      11.509  22.997  39.674  1.00  0.00    -0.305 N 
ATOM     26  C   UNL     1      12.748  23.719  39.696  1.00  0.00     0.323 C 
ATOM     27  H   UNL     1      10.710  23.385  40.225  1.00  0.00     0.171 HD
ATOM     28  O   UNL     1      13.816  23.156  39.332  1.00  0.00    -0.248 OA
ATOM     29  N   UNL     1      12.760  25.087  40.131  1.00  0.00    -0.308 N 
ATOM     30  H   UNL     1      11.844  25.590  40.166  1.00  0.00     0.171 HD
BRANCH  29  31
ATOM     31  C   UNL     1      13.955  25.841  40.397  1.00  0.00     0.042 A 
ATOM     32  C   UNL     1      13.942  26.821  41.401  1.00  0.00     0.026 A 
ATOM     33  C   UNL     1      15.158  25.576  39.714  1.00  0.00     0.026 A 
ATOM     34  C   UNL     1      15.098  27.553  41.693  1.00  0.00     0.002 A 
ATOM     35  C   UNL     1      16.311  26.309  40.009  1.00  0.00     0.002 A 
ATOM     36  C   UNL     1      16.281  27.300  40.994  1.00  0.00     0.000 A 
ENDBRANCH  29  31
ENDBRANCH   7  25
TORSDOF 5
ENDMDL
MODEL 13
REMARK VINA RESULT:    -8.080     13.762     16.506
REMARK INTER + INTRA:         -10.514
REMARK INTER:                 -10.205
REMARK INTRA:                  -0.309
REMARK UNBOUND:                -0.072
REMARK SMILES CCn1c(=O)c(-c2cc(NC(=O)Nc3ccccc3)c(F)cc2Br)cc2cnc(NC)cc21
REMARK SMILES IDX 7 1 23 2 24 3 22 4 20 5 21 6 9 7 8 8 6 9 3 10 4 11 33 12
REMARK SMILES IDX 5 13 26 14 32 15 25 16 27 17 29 18 28 19 2 20 1 21 30 22
REMARK SMILES IDX 31 23 10 25 11 26 12 28 13 29 14 31 15 32 19 33 16 34 18 35
REMARK SMILES IDX 17 36
REMARK H PARENT 30 24 10 27 13 30
REMARK Flexibility Score: inf
ROOT
ATOM      1  C   UNL     1      11.430  23.049  40.348  1.00  0.00     0.004 A 
ATOM      2  C   UNL     1      10.639  22.979  41.510  1.00  0.00     0.029 A 
ATOM      3  Br  UNL     1       9.469  21.497  41.855  1.00  0.00    -0.050 Br
ATOM      4  C   UNL     1      10.734  23.987  42.476  1.00  0.00     0.057 A 
ATOM      5  C   UNL     1      11.603  25.066  42.294  1.00  0.00     0.147 A 
ATOM      6  F   UNL     1      11.717  25.992  43.279  1.00  0.00    -0.205 F 
ATOM      7  C   UNL     1      12.386  25.152  41.130  1.00  0.00     0.079 A 
ATOM      8  C   UNL     1      12.312  24.128  40.175  1.00  0.00     0.039 A 
ENDROOT
BRANCH   1   9
ATOM      9  C   UNL     1      11.363  22.000  39.306  1.00  0.00     0.049 A 
ATOM     10  N   UNL     1      12.271  20.023  38.241  1.00  0.00    -0.308 N 
ATOM     11  C   UNL     1      12.344  20.999  39.213  1.00  0.00     0.258 A 
ATOM     12  C   UNL     1      11.246  20.050  37.308  1.00  0.00     0.056 A 
ATOM     13  O   UNL     1      13.297  21.005  40.042  1.00  0.00    -0.269 OA
ATOM     14  C   UNL     1      10.234  21.035  37.406  1.00  0.00     0.018 A 
ATOM     15  C   UNL     1      11.164  19.128  36.235  1.00  0.00     0.073 A 
ATOM     16  C   UNL     1      10.296  21.994  38.414  1.00  0.00     0.026 A 
ATOM     17  C   UNL     1       9.182  21.053  36.482  1.00  0.00     0.123 A 
ATOM     18  C   UNL     1      10.092  19.187  35.327  1.00  0.00     0.127 A 
ATOM     19  N   UNL     1       9.137  20.141  35.481  1.00  0.00    -0.239 NA
BRANCH  10  20
ATOM     20  C   UNL     1      13.325  18.982  38.211  1.00  0.00     0.122 C 
ATOM     21  C   UNL     1      14.585  19.509  37.530  1.00  0.00     0.028 C 
ENDBRANCH  10  20
BRANCH  18  22
ATOM     22  N   UNL     1       9.974  18.266  34.229  1.00  0.00    -0.373 N 
ATOM     23  C   UNL     1       9.002  18.406  33.149  1.00  0.00     0.141 C 
ATOM     24  H   UNL     1      10.623  17.447  34.199  1.00  0.00     0.161 HD
ENDBRANCH  18  22
ENDBRANCH   1   9
BRANCH   7  25
ATOM     25  N   UNL     1      13.303  26.239  40.923  1.00  0.00    -0.305 N 
ATOM     26  C   UNL     1      14.723  26.066  40.815  1.00  0.00     0.323 C 
ATOM     27  H   UNL     1      12.936  27.214  40.998  1.00  0.00     0.171 HD
ATOM     28  O   UNL     1      15.244  24.940  41.044  1.00  0.00    -0.248 OA
ATOM     29  N   UNL     1      15.543  27.184  40.442  1.00  0.00    -0.308 N 
ATOM     30  H   UNL     1      15.067  28.008  40.009  1.00  0.00     0.171 HD
BRANCH  29  31
ATOM     31  C   UNL     1      16.979  27.191  40.508  1.00  0.00     0.042 A 
ATOM     32  C   UNL     1      17.639  28.307  41.046  1.00  0.00     0.026 A 
ATOM     33  C   UNL     1      17.740  26.077  40.100  1.00  0.00     0.026 A 
ATOM     34  C   UNL     1      19.034  28.328  41.140  1.00  0.00     0.002 A 
ATOM     35  C   UNL     1      19.134  26.103  40.196  1.00  0.00     0.002 A 
ATOM     36  C   UNL     1      19.781  27.228  40.712  1.00  0.00     0.000 A 
ENDBRANCH  29  31
ENDBRANCH   7  25
TORSDOF 5
ENDMDL
MODEL 14
REMARK VINA RESULT:    -8.047     15.903     17.915
REMARK INTER + INTRA:         -10.471
REMARK INTER:                  -9.542
REMARK INTRA:                  -0.929
REMARK UNBOUND:                -0.072
REMARK SMILES CCn1c(=O)c(-c2cc(NC(=O)Nc3ccccc3)c(F)cc2Br)cc2cnc(NC)cc21
REMARK SMILES IDX 7 1 23 2 24 3 22 4 20 5 21 6 9 7 8 8 6 9 3 10 4 11 33 12
REMARK SMILES IDX 5 13 26 14 32 15 25 16 27 17 29 18 28 19 2 20 1 21 30 22
REMARK SMILES IDX 31 23 10 25 11 26 12 28 13 29 14 31 15 32 19 33 16 34 18 35
REMARK SMILES IDX 17 36
REMARK H PARENT 30 24 10 27 13 30
REMARK Flexibility Score: inf
ROOT
ATOM      1  C   UNL     1      11.673  21.962  38.526  1.00  0.00     0.004 A 
ATOM      2  C   UNL     1      13.075  22.078  38.595  1.00  0.00     0.029 A 
ATOM      3  Br  UNL     1      14.241  20.756  37.837  1.00  0.00    -0.050 Br
ATOM      4  C   UNL     1      13.649  23.209  39.185  1.00  0.00     0.057 A 
ATOM      5  C   UNL     1      12.844  24.221  39.713  1.00  0.00     0.147 A 
ATOM      6  F   UNL     1      13.434  25.333  40.221  1.00  0.00    -0.205 F 
ATOM      7  C   UNL     1      11.444  24.107  39.662  1.00  0.00     0.079 A 
ATOM      8  C   UNL     1      10.868  22.988  39.045  1.00  0.00     0.039 A 
ENDROOT
BRANCH   1   9
ATOM      9  C   UNL     1      11.026  20.785  37.904  1.00  0.00     0.049 A 
ATOM     10  N   UNL     1      10.016  19.698  35.989  1.00  0.00    -0.308 N 
ATOM     11  C   UNL     1      10.614  20.802  36.561  1.00  0.00     0.258 A 
ATOM     12  C   UNL     1       9.771  18.569  36.755  1.00  0.00     0.056 A 
ATOM     13  O   UNL     1      10.805  21.850  35.881  1.00  0.00    -0.269 OA
ATOM     14  C   UNL     1      10.207  18.526  38.101  1.00  0.00     0.018 A 
ATOM     15  C   UNL     1       9.084  17.438  36.249  1.00  0.00     0.073 A 
ATOM     16  C   UNL     1      10.843  19.631  38.659  1.00  0.00     0.026 A 
ATOM     17  C   UNL     1       9.984  17.378  38.872  1.00  0.00     0.123 A 
ATOM     18  C   UNL     1       8.878  16.308  37.062  1.00  0.00     0.127 A 
ATOM     19  N   UNL     1       9.336  16.313  38.341  1.00  0.00    -0.239 NA
BRANCH  10  20
ATOM     20  C   UNL     1       9.625  19.773  34.561  1.00  0.00     0.122 C 
ATOM     21  C   UNL     1      10.770  19.312  33.664  1.00  0.00     0.028 C 
ENDBRANCH  10  20
BRANCH  18  22
ATOM     22  N   UNL     1       8.189  15.141  36.582  1.00  0.00    -0.373 N 
ATOM     23  C   UNL     1       7.085  14.500  37.288  1.00  0.00     0.141 C 
ATOM     24  H   UNL     1       8.495  14.726  35.672  1.00  0.00     0.161 HD
ENDBRANCH  18  22
ENDBRANCH   1   9
BRANCH   7  25
ATOM     25  N   UNL     1      10.590  25.141  40.179  1.00  0.00    -0.305 N 
ATOM     26  C   UNL     1      10.362  26.389  39.508  1.00  0.00     0.323 C 
ATOM     27  H   UNL     1      10.230  25.041  41.155  1.00  0.00     0.171 HD
ATOM     28  O   UNL     1      11.031  26.688  38.481  1.00  0.00    -0.248 OA
ATOM     29  N   UNL     1       9.365  27.289  40.013  1.00  0.00    -0.308 N 
ATOM     30  H   UNL     1       8.663  26.904  40.684  1.00  0.00     0.171 HD
BRANCH  29  31
ATOM     31  C   UNL     1       9.195  28.644  39.560  1.00  0.00     0.042 A 
ATOM     32  C   UNL     1       8.553  28.885  38.336  1.00  0.00     0.026 A 
ATOM     33  C   UNL     1       9.605  29.739  40.346  1.00  0.00     0.026 A 
ATOM     34  C   UNL     1       8.357  30.195  37.885  1.00  0.00     0.002 A 
ATOM     35  C   UNL     1       9.407  31.046  39.892  1.00  0.00     0.002 A 
ATOM     36  C   UNL     1       8.787  31.274  38.660  1.00  0.00     0.000 A 
ENDBRANCH  29  31
ENDBRANCH   7  25
TORSDOF 5
ENDMDL
MODEL 15
REMARK VINA RESULT:    -7.979     13.226     17.223
REMARK INTER + INTRA:         -10.384
REMARK INTER:                  -9.787
REMARK INTRA:                  -0.597
REMARK UNBOUND:                -0.072
REMARK SMILES CCn1c(=O)c(-c2cc(NC(=O)Nc3ccccc3)c(F)cc2Br)cc2cnc(NC)cc21
REMARK SMILES IDX 7 1 23 2 24 3 22 4 20 5 21 6 9 7 8 8 6 9 3 10 4 11 33 12
REMARK SMILES IDX 5 13 26 14 32 15 25 16 27 17 29 18 28 19 2 20 1 21 30 22
REMARK SMILES IDX 31 23 10 25 11 26 12 28 13 29 14 31 15 32 19 33 16 34 18 35
REMARK SMILES IDX 17 36
REMARK H PARENT 30 24 10 27 13 30
REMARK Flexibility Score: inf
ROOT
ATOM      1  C   UNL     1      11.780  25.457  41.130  1.00  0.00     0.004 A 
ATOM      2  C   UNL     1      10.840  26.460  40.825  1.00  0.00     0.029 A 
ATOM      3  Br  UNL     1       9.014  26.046  40.401  1.00  0.00    -0.050 Br
ATOM      4  C   UNL     1      11.219  27.806  40.878  1.00  0.00     0.057 A 
ATOM      5  C   UNL     1      12.525  28.162  41.225  1.00  0.00     0.147 A 
ATOM      6  F   UNL     1      12.842  29.478  41.329  1.00  0.00    -0.205 F 
ATOM      7  C   UNL     1      13.474  27.167  41.516  1.00  0.00     0.079 A 
ATOM      8  C   UNL     1      13.087  25.820  41.490  1.00  0.00     0.039 A 
ENDROOT
BRANCH   1   9
ATOM      9  C   UNL     1      11.416  24.023  41.091  1.00  0.00     0.049 A 
ATOM     10  N   UNL     1      10.482  22.053  42.147  1.00  0.00    -0.308 N 
ATOM     11  C   UNL     1      10.822  23.390  42.195  1.00  0.00     0.258 A 
ATOM     12  C   UNL     1      10.772  21.305  41.018  1.00  0.00     0.056 A 
ATOM     13  O   UNL     1      10.597  24.070  43.236  1.00  0.00    -0.269 OA
ATOM     14  C   UNL     1      11.344  21.935  39.887  1.00  0.00     0.018 A 
ATOM     15  C   UNL     1      10.527  19.912  40.940  1.00  0.00     0.073 A 
ATOM     16  C   UNL     1      11.649  23.293  39.930  1.00  0.00     0.026 A 
ATOM     17  C   UNL     1      11.617  21.189  38.733  1.00  0.00     0.123 A 
ATOM     18  C   UNL     1      10.822  19.201  39.763  1.00  0.00     0.127 A 
ATOM     19  N   UNL     1      11.351  19.861  38.699  1.00  0.00    -0.239 NA
BRANCH  10  20
ATOM     20  C   UNL     1       9.837  21.451  43.338  1.00  0.00     0.122 C 
ATOM     21  C   UNL     1       8.321  21.614  43.270  1.00  0.00     0.028 C 
ENDBRANCH  10  20
BRANCH  18  22
ATOM     22  N   UNL     1      10.583  17.788  39.647  1.00  0.00    -0.373 N 
ATOM     23  C   UNL     1      11.623  16.809  39.346  1.00  0.00     0.141 C 
ATOM     24  H   UNL     1       9.608  17.438  39.787  1.00  0.00     0.161 HD
ENDBRANCH  18  22
ENDBRANCH   1   9
BRANCH   7  25
ATOM     25  N   UNL     1      14.819  27.504  41.894  1.00  0.00    -0.305 N 
ATOM     26  C   UNL     1      15.968  27.190  41.094  1.00  0.00     0.323 C 
ATOM     27  H   UNL     1      14.983  27.865  42.861  1.00  0.00     0.171 HD
ATOM     28  O   UNL     1      15.848  26.463  40.070  1.00  0.00    -0.248 OA
ATOM     29  N   UNL     1      17.252  27.711  41.469  1.00  0.00    -0.308 N 
ATOM     30  H   UNL     1      17.270  28.506  42.147  1.00  0.00     0.171 HD
BRANCH  29  31
ATOM     31  C   UNL     1      18.496  27.298  40.878  1.00  0.00     0.042 A 
ATOM     32  C   UNL     1      18.750  25.930  40.694  1.00  0.00     0.026 A 
ATOM     33  C   UNL     1      19.442  28.237  40.423  1.00  0.00     0.026 A 
ATOM     34  C   UNL     1      19.944  25.505  40.102  1.00  0.00     0.002 A 
ATOM     35  C   UNL     1      20.634  27.808  39.832  1.00  0.00     0.002 A 
ATOM     36  C   UNL     1      20.887  26.443  39.675  1.00  0.00     0.000 A 
ENDBRANCH  29  31
ENDBRANCH   7  25
TORSDOF 5
ENDMDL
