MODEL 1
REMARK VINA RESULT:    -7.072      0.000      0.000
REMARK INTER + INTRA:          -9.791
REMARK INTER:                  -9.346
REMARK INTRA:                  -0.445
REMARK UNBOUND:                -0.445
REMARK SMILES NC(=O)OC[C@H](N)Cc1ccccc1
REMARK SMILES IDX 5 1 6 2 7 3 8 6 9 7 10 8 14 9 11 10 13 11 12 12 4 13 2 14
REMARK SMILES IDX 1 15 3 16
REMARK H PARENT 7 4 7 5 1 17 1 18
REMARK Flexibility Score: inf
ROOT
ATOM      1  C   UNL     1      27.730   7.895   8.897  1.00  0.00     0.253 C 
ENDROOT
BRANCH   1   2
ATOM      2  C   UNL     1      26.919   8.432  10.092  1.00  0.00     0.093 C 
BRANCH   2   3
ATOM      3  N   UNL     1      27.049   7.509  11.221  1.00  0.00    -0.325 NA
ATOM      4  H   UNL     1      28.054   7.230  11.309  1.00  0.00     0.119 HD
ATOM      5  H   UNL     1      26.534   6.628  10.992  1.00  0.00     0.119 HD
ENDBRANCH   2   3
BRANCH   2   6
ATOM      6  C   UNL     1      25.422   8.602   9.744  1.00  0.00     0.057 C 
BRANCH   6   7
ATOM      7  C   UNL     1      24.817   9.840  10.360  1.00  0.00    -0.046 A 
ATOM      8  C   UNL     1      23.550   9.790  10.966  1.00  0.00     0.004 A 
ATOM      9  C   UNL     1      25.502  11.066  10.298  1.00  0.00     0.004 A 
ATOM     10  C   UNL     1      22.978  10.948  11.500  1.00  0.00     0.000 A 
ATOM     11  C   UNL     1      24.925  12.222  10.834  1.00  0.00     0.000 A 
ATOM     12  C   UNL     1      23.664  12.164  11.433  1.00  0.00     0.000 A 
ENDBRANCH   6   7
ENDBRANCH   2   6
ENDBRANCH   1   2
BRANCH   1  13
ATOM     13  O   UNL     1      28.964   8.596   8.785  1.00  0.00    -0.448 OA
BRANCH  13  14
ATOM     14  C   UNL     1      30.180   8.067   9.222  1.00  0.00     0.404 C 
ATOM     15  N   UNL     1      30.193   7.149  10.312  1.00  0.00    -0.335 N 
ATOM     16  O   UNL     1      31.263   8.396   8.668  1.00  0.00    -0.225 OA
ATOM     17  H   UNL     1      29.300   6.883  10.783  1.00  0.00     0.163 HD
ATOM     18  H   UNL     1      31.092   6.743  10.652  1.00  0.00     0.163 HD
ENDBRANCH  13  14
ENDBRANCH   1  13
TORSDOF 6
ENDMDL
MODEL 2
REMARK VINA RESULT:    -7.070      0.123      1.301
REMARK INTER + INTRA:          -9.788
REMARK INTER:                  -9.345
REMARK INTRA:                  -0.443
REMARK UNBOUND:                -0.445
REMARK SMILES NC(=O)OC[C@H](N)Cc1ccccc1
REMARK SMILES IDX 5 1 6 2 7 3 8 6 9 7 10 8 14 9 11 10 13 11 12 12 4 13 2 14
REMARK SMILES IDX 1 15 3 16
REMARK H PARENT 7 4 7 5 1 17 1 18
REMARK Flexibility Score: inf
ROOT
ATOM      1  C   UNL     1      27.695   7.704   8.902  1.00  0.00     0.253 C 
ENDROOT
BRANCH   1   2
ATOM      2  C   UNL     1      26.918   8.364  10.058  1.00  0.00     0.093 C 
BRANCH   2   3
ATOM      3  N   UNL     1      27.070   7.555  11.269  1.00  0.00    -0.325 NA
ATOM      4  H   UNL     1      27.203   8.199  12.084  1.00  0.00     0.119 HD
ATOM      5  H   UNL     1      27.961   7.011  11.197  1.00  0.00     0.119 HD
ENDBRANCH   2   3
BRANCH   2   6
ATOM      6  C   UNL     1      25.414   8.512   9.731  1.00  0.00     0.057 C 
BRANCH   6   7
ATOM      7  C   UNL     1      24.817   9.778  10.294  1.00  0.00    -0.046 A 
ATOM      8  C   UNL     1      25.533  10.987  10.247  1.00  0.00     0.004 A 
ATOM      9  C   UNL     1      23.553   9.751  10.907  1.00  0.00     0.004 A 
ATOM     10  C   UNL     1      24.992  12.148  10.807  1.00  0.00     0.000 A 
ATOM     11  C   UNL     1      23.016  10.916  11.464  1.00  0.00     0.000 A 
ATOM     12  C   UNL     1      23.735  12.113  11.416  1.00  0.00     0.000 A 
ENDBRANCH   6   7
ENDBRANCH   2   6
ENDBRANCH   1   2
BRANCH   1  13
ATOM     13  O   UNL     1      28.907   8.411   8.658  1.00  0.00    -0.448 OA
BRANCH  13  14
ATOM     14  C   UNL     1      30.124   8.056   9.245  1.00  0.00     0.404 C 
ATOM     15  N   UNL     1      30.136   7.135  10.332  1.00  0.00    -0.335 N 
ATOM     16  O   UNL     1      31.208   8.544   8.826  1.00  0.00    -0.225 OA
ATOM     17  H   UNL     1      29.240   6.737  10.691  1.00  0.00     0.163 HD
ATOM     18  H   UNL     1      31.036   6.858  10.782  1.00  0.00     0.163 HD
ENDBRANCH  13  14
ENDBRANCH   1  13
TORSDOF 6
ENDMDL
MODEL 3
REMARK VINA RESULT:    -6.610      1.338      2.345
REMARK INTER + INTRA:          -9.179
REMARK INTER:                  -8.686
REMARK INTRA:                  -0.493
REMARK UNBOUND:                -0.445
REMARK SMILES NC(=O)OC[C@H](N)Cc1ccccc1
REMARK SMILES IDX 5 1 6 2 7 3 8 6 9 7 10 8 14 9 11 10 13 11 12 12 4 13 2 14
REMARK SMILES IDX 1 15 3 16
REMARK H PARENT 7 4 7 5 1 17 1 18
REMARK Flexibility Score: inf
ROOT
ATOM      1  C   UNL     1      30.027   9.759  10.351  1.00  0.00     0.253 C 
ENDROOT
BRANCH   1   2
ATOM      2  C   UNL     1      28.623   9.236  10.708  1.00  0.00     0.093 C 
BRANCH   2   3
ATOM      3  N   UNL     1      28.741   7.918  11.338  1.00  0.00    -0.325 NA
ATOM      4  H   UNL     1      27.781   7.576  11.574  1.00  0.00     0.119 HD
ATOM      5  H   UNL     1      29.231   8.031  12.255  1.00  0.00     0.119 HD
ENDBRANCH   2   3
BRANCH   2   6
ATOM      6  C   UNL     1      27.715   9.124   9.461  1.00  0.00     0.057 C 
BRANCH   6   7
ATOM      7  C   UNL     1      26.250   9.272   9.793  1.00  0.00    -0.046 A 
ATOM      8  C   UNL     1      25.719  10.529  10.131  1.00  0.00     0.004 A 
ATOM      9  C   UNL     1      25.411   8.145   9.803  1.00  0.00     0.004 A 
ATOM     10  C   UNL     1      24.370  10.653  10.476  1.00  0.00     0.000 A 
ATOM     11  C   UNL     1      24.062   8.275  10.148  1.00  0.00     0.000 A 
ATOM     12  C   UNL     1      23.542   9.527  10.485  1.00  0.00     0.000 A 
ENDBRANCH   6   7
ENDBRANCH   2   6
ENDBRANCH   1   2
BRANCH   1  13
ATOM     13  O   UNL     1      30.518   9.098   9.190  1.00  0.00    -0.448 OA
BRANCH  13  14
ATOM     14  C   UNL     1      31.527   8.133   9.235  1.00  0.00     0.404 C 
ATOM     15  N   UNL     1      31.213   6.811   9.666  1.00  0.00    -0.335 N 
ATOM     16  O   UNL     1      32.709   8.420   8.906  1.00  0.00    -0.225 OA
ATOM     17  H   UNL     1      30.239   6.571   9.952  1.00  0.00     0.163 HD
ATOM     18  H   UNL     1      31.955   6.077   9.706  1.00  0.00     0.163 HD
ENDBRANCH  13  14
ENDBRANCH   1  13
TORSDOF 6
ENDMDL
MODEL 4
REMARK VINA RESULT:    -6.570      1.639      2.328
REMARK INTER + INTRA:          -9.127
REMARK INTER:                  -8.652
REMARK INTRA:                  -0.475
REMARK UNBOUND:                -0.445
REMARK SMILES NC(=O)OC[C@H](N)Cc1ccccc1
REMARK SMILES IDX 5 1 6 2 7 3 8 6 9 7 10 8 14 9 11 10 13 11 12 12 4 13 2 14
REMARK SMILES IDX 1 15 3 16
REMARK H PARENT 7 4 7 5 1 17 1 18
REMARK Flexibility Score: inf
ROOT
ATOM      1  C   UNL     1      28.374   9.525  10.312  1.00  0.00     0.253 C 
ENDROOT
BRANCH   1   2
ATOM      2  C   UNL     1      27.274   9.875   9.290  1.00  0.00     0.093 C 
BRANCH   2   3
ATOM      3  N   UNL     1      27.881  10.530   8.129  1.00  0.00    -0.325 NA
ATOM      4  H   UNL     1      28.026  11.540   8.355  1.00  0.00     0.119 HD
ATOM      5  H   UNL     1      27.192  10.517   7.341  1.00  0.00     0.119 HD
ENDBRANCH   2   3
BRANCH   2   6
ATOM      6  C   UNL     1      26.199  10.806   9.895  1.00  0.00     0.057 C 
BRANCH   6   7
ATOM      7  C   UNL     1      24.965  10.059  10.340  1.00  0.00    -0.046 A 
ATOM      8  C   UNL     1      24.759   8.725   9.949  1.00  0.00     0.004 A 
ATOM      9  C   UNL     1      23.991  10.706  11.119  1.00  0.00     0.004 A 
ATOM     10  C   UNL     1      23.596   8.051  10.331  1.00  0.00     0.000 A 
ATOM     11  C   UNL     1      22.829  10.027  11.500  1.00  0.00     0.000 A 
ATOM     12  C   UNL     1      22.631   8.701  11.105  1.00  0.00     0.000 A 
ENDBRANCH   6   7
ENDBRANCH   2   6
ENDBRANCH   1   2
BRANCH   1  13
ATOM     13  O   UNL     1      28.896   8.227  10.048  1.00  0.00    -0.448 OA
BRANCH  13  14
ATOM     14  C   UNL     1      30.126   8.017   9.423  1.00  0.00     0.404 C 
ATOM     15  N   UNL     1      30.949   6.931   9.840  1.00  0.00    -0.335 N 
ATOM     16  O   UNL     1      30.519   8.780   8.499  1.00  0.00    -0.225 OA
ATOM     17  H   UNL     1      30.635   6.304  10.613  1.00  0.00     0.163 HD
ATOM     18  H   UNL     1      31.872   6.759   9.384  1.00  0.00     0.163 HD
ENDBRANCH  13  14
ENDBRANCH   1  13
TORSDOF 6
ENDMDL
MODEL 5
REMARK VINA RESULT:    -6.561      2.802      3.451
REMARK INTER + INTRA:          -9.115
REMARK INTER:                  -8.692
REMARK INTRA:                  -0.423
REMARK UNBOUND:                -0.445
REMARK SMILES NC(=O)OC[C@H](N)Cc1ccccc1
REMARK SMILES IDX 5 1 6 2 7 3 8 6 9 7 10 8 14 9 11 10 13 11 12 12 4 13 2 14
REMARK SMILES IDX 1 15 3 16
REMARK H PARENT 7 4 7 5 1 17 1 18
REMARK Flexibility Score: inf
ROOT
ATOM      1  C   UNL     1      29.654  10.030  10.866  1.00  0.00     0.253 C 
ENDROOT
BRANCH   1   2
ATOM      2  C   UNL     1      28.677   8.854  10.670  1.00  0.00     0.093 C 
BRANCH   2   3
ATOM      3  N   UNL     1      29.438   7.617  10.485  1.00  0.00    -0.325 NA
ATOM      4  H   UNL     1      28.764   6.835  10.311  1.00  0.00     0.119 HD
ATOM      5  H   UNL     1      29.913   7.380  11.387  1.00  0.00     0.119 HD
ENDBRANCH   2   3
BRANCH   2   6
ATOM      6  C   UNL     1      27.753   9.071   9.449  1.00  0.00     0.057 C 
BRANCH   6   7
ATOM      7  C   UNL     1      26.302   9.218   9.836  1.00  0.00    -0.046 A 
ATOM      8  C   UNL     1      25.448   8.101   9.841  1.00  0.00     0.004 A 
ATOM      9  C   UNL     1      25.781  10.483  10.159  1.00  0.00     0.004 A 
ATOM     10  C   UNL     1      24.095   8.250  10.161  1.00  0.00     0.000 A 
ATOM     11  C   UNL     1      24.428  10.626  10.480  1.00  0.00     0.000 A 
ATOM     12  C   UNL     1      23.585   9.512  10.480  1.00  0.00     0.000 A 
ENDBRANCH   6   7
ENDBRANCH   2   6
ENDBRANCH   1   2
BRANCH   1  13
ATOM     13  O   UNL     1      28.972  11.147  11.429  1.00  0.00    -0.448 OA
BRANCH  13  14
ATOM     14  C   UNL     1      29.109  12.446  10.936  1.00  0.00     0.404 C 
ATOM     15  N   UNL     1      28.572  12.771   9.657  1.00  0.00    -0.335 N 
ATOM     16  O   UNL     1      29.706  13.331  11.607  1.00  0.00    -0.225 OA
ATOM     17  H   UNL     1      28.087  12.039   9.091  1.00  0.00     0.163 HD
ATOM     18  H   UNL     1      28.664  13.737   9.272  1.00  0.00     0.163 HD
ENDBRANCH  13  14
ENDBRANCH   1  13
TORSDOF 6
ENDMDL
MODEL 6
REMARK VINA RESULT:    -6.371      1.981      2.546
REMARK INTER + INTRA:          -8.864
REMARK INTER:                  -8.400
REMARK INTRA:                  -0.464
REMARK UNBOUND:                -0.445
REMARK SMILES NC(=O)OC[C@H](N)Cc1ccccc1
REMARK SMILES IDX 5 1 6 2 7 3 8 6 9 7 10 8 14 9 11 10 13 11 12 12 4 13 2 14
REMARK SMILES IDX 1 15 3 16
REMARK H PARENT 7 4 7 5 1 17 1 18
REMARK Flexibility Score: inf
ROOT
ATOM      1  C   UNL     1      29.324   9.772  11.189  1.00  0.00     0.253 C 
ENDROOT
BRANCH   1   2
ATOM      2  C   UNL     1      28.626   8.525  10.611  1.00  0.00     0.093 C 
BRANCH   2   3
ATOM      3  N   UNL     1      29.637   7.546  10.208  1.00  0.00    -0.325 NA
ATOM      4  H   UNL     1      29.804   6.892  11.007  1.00  0.00     0.119 HD
ATOM      5  H   UNL     1      30.545   8.045  10.063  1.00  0.00     0.119 HD
ENDBRANCH   2   3
BRANCH   2   6
ATOM      6  C   UNL     1      27.740   8.873   9.392  1.00  0.00     0.057 C 
BRANCH   6   7
ATOM      7  C   UNL     1      26.339   9.274   9.786  1.00  0.00    -0.046 A 
ATOM      8  C   UNL     1      25.326   8.306   9.900  1.00  0.00     0.004 A 
ATOM      9  C   UNL     1      26.026  10.626  10.005  1.00  0.00     0.004 A 
ATOM     10  C   UNL     1      24.022   8.688  10.226  1.00  0.00     0.000 A 
ATOM     11  C   UNL     1      24.720  11.002  10.331  1.00  0.00     0.000 A 
ATOM     12  C   UNL     1      23.718  10.035  10.440  1.00  0.00     0.000 A 
ENDBRANCH   6   7
ENDBRANCH   2   6
ENDBRANCH   1   2
BRANCH   1  13
ATOM     13  O   UNL     1      30.041  10.453  10.165  1.00  0.00    -0.448 OA
BRANCH  13  14
ATOM     14  C   UNL     1      31.431  10.586  10.172  1.00  0.00     0.404 C 
ATOM     15  N   UNL     1      32.242   9.455  10.479  1.00  0.00    -0.335 N 
ATOM     16  O   UNL     1      31.975  11.694   9.916  1.00  0.00    -0.225 OA
ATOM     17  H   UNL     1      31.797   8.538  10.705  1.00  0.00     0.163 HD
ATOM     18  H   UNL     1      33.283   9.535  10.489  1.00  0.00     0.163 HD
ENDBRANCH  13  14
ENDBRANCH   1  13
TORSDOF 6
ENDMDL
MODEL 7
REMARK VINA RESULT:    -6.310      1.771      2.613
REMARK INTER + INTRA:          -8.783
REMARK INTER:                  -8.264
REMARK INTRA:                  -0.519
REMARK UNBOUND:                -0.445
REMARK SMILES NC(=O)OC[C@H](N)Cc1ccccc1
REMARK SMILES IDX 5 1 6 2 7 3 8 6 9 7 10 8 14 9 11 10 13 11 12 12 4 13 2 14
REMARK SMILES IDX 1 15 3 16
REMARK H PARENT 7 4 7 5 1 17 1 18
REMARK Flexibility Score: inf
ROOT
ATOM      1  C   UNL     1      29.556   9.980  10.591  1.00  0.00     0.253 C 
ENDROOT
BRANCH   1   2
ATOM      2  C   UNL     1      28.599   8.773  10.579  1.00  0.00     0.093 C 
BRANCH   2   3
ATOM      3  N   UNL     1      29.380   7.534  10.543  1.00  0.00    -0.325 NA
ATOM      4  H   UNL     1      28.718   6.725  10.501  1.00  0.00     0.119 HD
ATOM      5  H   UNL     1      29.885   7.433  11.453  1.00  0.00     0.119 HD
ENDBRANCH   2   3
BRANCH   2   6
ATOM      6  C   UNL     1      27.643   8.807   9.365  1.00  0.00     0.057 C 
BRANCH   6   7
ATOM      7  C   UNL     1      26.232   9.185   9.745  1.00  0.00    -0.046 A 
ATOM      8  C   UNL     1      25.905  10.520  10.038  1.00  0.00     0.004 A 
ATOM      9  C   UNL     1      25.239   8.195   9.847  1.00  0.00     0.004 A 
ATOM     10  C   UNL     1      24.605  10.857  10.429  1.00  0.00     0.000 A 
ATOM     11  C   UNL     1      23.941   8.539  10.237  1.00  0.00     0.000 A 
ATOM     12  C   UNL     1      23.624   9.868  10.529  1.00  0.00     0.000 A 
ENDBRANCH   6   7
ENDBRANCH   2   6
ENDBRANCH   1   2
BRANCH   1  13
ATOM     13  O   UNL     1      29.679  10.524   9.281  1.00  0.00    -0.448 OA
BRANCH  13  14
ATOM     14  C   UNL     1      30.795  10.306   8.471  1.00  0.00     0.404 C 
ATOM     15  N   UNL     1      31.338   8.993   8.363  1.00  0.00    -0.335 N 
ATOM     16  O   UNL     1      31.330  11.258   7.841  1.00  0.00    -0.225 OA
ATOM     17  H   UNL     1      30.907   8.203   8.892  1.00  0.00     0.163 HD
ATOM     18  H   UNL     1      32.172   8.812   7.762  1.00  0.00     0.163 HD
ENDBRANCH  13  14
ENDBRANCH   1  13
TORSDOF 6
ENDMDL
MODEL 8
REMARK VINA RESULT:    -6.284      1.747      2.283
REMARK INTER + INTRA:          -8.749
REMARK INTER:                  -8.442
REMARK INTRA:                  -0.307
REMARK UNBOUND:                -0.445
REMARK SMILES NC(=O)OC[C@H](N)Cc1ccccc1
REMARK SMILES IDX 5 1 6 2 7 3 8 6 9 7 10 8 14 9 11 10 13 11 12 12 4 13 2 14
REMARK SMILES IDX 1 15 3 16
REMARK H PARENT 7 4 7 5 1 17 1 18
REMARK Flexibility Score: inf
ROOT
ATOM      1  C   UNL     1      27.895   9.618   8.870  1.00  0.00     0.253 C 
ENDROOT
BRANCH   1   2
ATOM      2  C   UNL     1      27.104   9.018  10.049  1.00  0.00     0.093 C 
BRANCH   2   3
ATOM      3  N   UNL     1      27.594   7.666  10.325  1.00  0.00    -0.325 NA
ATOM      4  H   UNL     1      27.504   7.483  11.351  1.00  0.00     0.119 HD
ATOM      5  H   UNL     1      28.621   7.637  10.126  1.00  0.00     0.119 HD
ENDBRANCH   2   3
BRANCH   2   6
ATOM      6  C   UNL     1      25.587   8.960   9.756  1.00  0.00     0.057 C 
BRANCH   6   7
ATOM      7  C   UNL     1      24.828  10.103  10.385  1.00  0.00    -0.046 A 
ATOM      8  C   UNL     1      25.410  11.380  10.477  1.00  0.00     0.004 A 
ATOM      9  C   UNL     1      23.546   9.891  10.919  1.00  0.00     0.004 A 
ATOM     10  C   UNL     1      24.718  12.425  11.096  1.00  0.00     0.000 A 
ATOM     11  C   UNL     1      22.858  10.941  11.537  1.00  0.00     0.000 A 
ATOM     12  C   UNL     1      23.444  12.206  11.627  1.00  0.00     0.000 A 
ENDBRANCH   6   7
ENDBRANCH   2   6
ENDBRANCH   1   2
BRANCH   1  13
ATOM     13  O   UNL     1      28.693  10.708   9.316  1.00  0.00    -0.448 OA
BRANCH  13  14
ATOM     14  C   UNL     1      29.311  10.734  10.569  1.00  0.00     0.404 C 
ATOM     15  N   UNL     1      30.277   9.738  10.894  1.00  0.00    -0.335 N 
ATOM     16  O   UNL     1      29.019  11.623  11.414  1.00  0.00    -0.225 OA
ATOM     17  H   UNL     1      30.513   8.992  10.203  1.00  0.00     0.163 HD
ATOM     18  H   UNL     1      30.749   9.742  11.825  1.00  0.00     0.163 HD
ENDBRANCH  13  14
ENDBRANCH   1  13
TORSDOF 6
ENDMDL
MODEL 9
REMARK VINA RESULT:    -6.207      1.884      2.646
REMARK INTER + INTRA:          -8.647
REMARK INTER:                  -8.295
REMARK INTRA:                  -0.352
REMARK UNBOUND:                -0.445
REMARK SMILES NC(=O)OC[C@H](N)Cc1ccccc1
REMARK SMILES IDX 5 1 6 2 7 3 8 6 9 7 10 8 14 9 11 10 13 11 12 12 4 13 2 14
REMARK SMILES IDX 1 15 3 16
REMARK H PARENT 7 4 7 5 1 17 1 18
REMARK Flexibility Score: inf
ROOT
ATOM      1  C   UNL     1      28.172  10.730  10.495  1.00  0.00     0.253 C 
ENDROOT
BRANCH   1   2
ATOM      2  C   UNL     1      26.986  10.651   9.515  1.00  0.00     0.093 C 
BRANCH   2   3
ATOM      3  N   UNL     1      27.373  11.245   8.234  1.00  0.00    -0.325 NA
ATOM      4  H   UNL     1      26.509  11.588   7.752  1.00  0.00     0.119 HD
ATOM      5  H   UNL     1      27.754  10.490   7.618  1.00  0.00     0.119 HD
ENDBRANCH   2   3
BRANCH   2   6
ATOM      6  C   UNL     1      25.738  11.384  10.060  1.00  0.00     0.057 C 
BRANCH   6   7
ATOM      7  C   UNL     1      24.641  10.435  10.478  1.00  0.00    -0.046 A 
ATOM      8  C   UNL     1      23.656  10.842  11.394  1.00  0.00     0.004 A 
ATOM      9  C   UNL     1      24.618   9.120   9.982  1.00  0.00     0.004 A 
ATOM     10  C   UNL     1      22.666   9.946  11.807  1.00  0.00     0.000 A 
ATOM     11  C   UNL     1      23.624   8.228  10.398  1.00  0.00     0.000 A 
ATOM     12  C   UNL     1      22.650   8.640  11.311  1.00  0.00     0.000 A 
ENDBRANCH   6   7
ENDBRANCH   2   6
ENDBRANCH   1   2
BRANCH   1  13
ATOM     13  O   UNL     1      29.242   9.908  10.039  1.00  0.00    -0.448 OA
BRANCH  13  14
ATOM     14  C   UNL     1      29.169   8.514  10.010  1.00  0.00     0.404 C 
ATOM     15  N   UNL     1      28.931   7.799  11.219  1.00  0.00    -0.335 N 
ATOM     16  O   UNL     1      29.317   7.883   8.928  1.00  0.00    -0.225 OA
ATOM     17  H   UNL     1      28.820   8.316  12.120  1.00  0.00     0.163 HD
ATOM     18  H   UNL     1      28.873   6.757  11.216  1.00  0.00     0.163 HD
ENDBRANCH  13  14
ENDBRANCH   1  13
TORSDOF 6
ENDMDL
MODEL 10
REMARK VINA RESULT:    -5.890      1.791      2.410
REMARK INTER + INTRA:          -8.229
REMARK INTER:                  -8.415
REMARK INTRA:                   0.186
REMARK UNBOUND:                -0.445
REMARK SMILES NC(=O)OC[C@H](N)Cc1ccccc1
REMARK SMILES IDX 5 1 6 2 7 3 8 6 9 7 10 8 14 9 11 10 13 11 12 12 4 13 2 14
REMARK SMILES IDX 1 15 3 16
REMARK H PARENT 7 4 7 5 1 17 1 18
REMARK Flexibility Score: inf
ROOT
ATOM      1  C   UNL     1      28.342   9.738  10.642  1.00  0.00     0.253 C 
ENDROOT
BRANCH   1   2
ATOM      2  C   UNL     1      28.301  11.235  10.279  1.00  0.00     0.093 C 
BRANCH   2   3
ATOM      3  N   UNL     1      28.231  12.031  11.506  1.00  0.00    -0.325 NA
ATOM      4  H   UNL     1      28.888  11.618  12.208  1.00  0.00     0.119 HD
ATOM      5  H   UNL     1      27.276  11.920  11.921  1.00  0.00     0.119 HD
ENDBRANCH   2   3
BRANCH   2   6
ATOM      6  C   UNL     1      27.091  11.578   9.380  1.00  0.00     0.057 C 
BRANCH   6   7
ATOM      7  C   UNL     1      25.771  11.416  10.094  1.00  0.00    -0.046 A 
ATOM      8  C   UNL     1      25.202  12.493  10.795  1.00  0.00     0.004 A 
ATOM      9  C   UNL     1      25.117  10.172  10.095  1.00  0.00     0.004 A 
ATOM     10  C   UNL     1      24.000  12.326  11.488  1.00  0.00     0.000 A 
ATOM     11  C   UNL     1      23.913  10.011  10.789  1.00  0.00     0.000 A 
ATOM     12  C   UNL     1      23.356  11.086  11.486  1.00  0.00     0.000 A 
ENDBRANCH   6   7
ENDBRANCH   2   6
ENDBRANCH   1   2
BRANCH   1  13
ATOM     13  O   UNL     1      29.679   9.253  10.581  1.00  0.00    -0.448 OA
BRANCH  13  14
ATOM     14  C   UNL     1      30.135   8.409   9.566  1.00  0.00     0.404 C 
ATOM     15  N   UNL     1      30.657   7.127   9.901  1.00  0.00    -0.335 N 
ATOM     16  O   UNL     1      30.095   8.773   8.359  1.00  0.00    -0.225 OA
ATOM     17  H   UNL     1      30.705   6.826  10.900  1.00  0.00     0.163 HD
ATOM     18  H   UNL     1      31.002   6.483   9.155  1.00  0.00     0.163 HD
ENDBRANCH  13  14
ENDBRANCH   1  13
TORSDOF 6
ENDMDL
MODEL 11
REMARK VINA RESULT:    -5.876      2.366      3.859
REMARK INTER + INTRA:          -8.209
REMARK INTER:                  -7.875
REMARK INTRA:                  -0.335
REMARK UNBOUND:                -0.445
REMARK SMILES NC(=O)OC[C@H](N)Cc1ccccc1
REMARK SMILES IDX 5 1 6 2 7 3 8 6 9 7 10 8 14 9 11 10 13 11 12 12 4 13 2 14
REMARK SMILES IDX 1 15 3 16
REMARK H PARENT 7 4 7 5 1 17 1 18
REMARK Flexibility Score: inf
ROOT
ATOM      1  C   UNL     1      23.816   8.906  10.559  1.00  0.00     0.253 C 
ENDROOT
BRANCH   1   2
ATOM      2  C   UNL     1      23.711  10.248  11.308  1.00  0.00     0.093 C 
BRANCH   2   3
ATOM      3  N   UNL     1      22.494  10.256  12.123  1.00  0.00    -0.325 NA
ATOM      4  H   UNL     1      21.782   9.644  11.663  1.00  0.00     0.119 HD
ATOM      5  H   UNL     1      22.088  11.219  12.106  1.00  0.00     0.119 HD
ENDBRANCH   2   3
BRANCH   2   6
ATOM      6  C   UNL     1      23.679  11.450  10.336  1.00  0.00     0.057 C 
BRANCH   6   7
ATOM      7  C   UNL     1      24.846  12.387  10.529  1.00  0.00    -0.046 A 
ATOM      8  C   UNL     1      24.655  13.656  11.103  1.00  0.00     0.004 A 
ATOM      9  C   UNL     1      26.131  12.013  10.101  1.00  0.00     0.004 A 
ATOM     10  C   UNL     1      25.733  14.535  11.243  1.00  0.00     0.000 A 
ATOM     11  C   UNL     1      27.206  12.896  10.245  1.00  0.00     0.000 A 
ATOM     12  C   UNL     1      27.007  14.156  10.813  1.00  0.00     0.000 A 
ENDBRANCH   6   7
ENDBRANCH   2   6
ENDBRANCH   1   2
BRANCH   1  13
ATOM     13  O   UNL     1      24.941   8.916   9.686  1.00  0.00    -0.448 OA
BRANCH  13  14
ATOM     14  C   UNL     1      26.152   8.296  10.002  1.00  0.00     0.404 C 
ATOM     15  N   UNL     1      26.158   7.179  10.885  1.00  0.00    -0.335 N 
ATOM     16  O   UNL     1      27.238   8.719   9.519  1.00  0.00    -0.225 OA
ATOM     17  H   UNL     1      25.264   6.833  11.298  1.00  0.00     0.163 HD
ATOM     18  H   UNL     1      27.054   6.703  11.133  1.00  0.00     0.163 HD
ENDBRANCH  13  14
ENDBRANCH   1  13
TORSDOF 6
ENDMDL
MODEL 12
REMARK VINA RESULT:    -5.703      3.099      4.785
REMARK INTER + INTRA:          -7.982
REMARK INTER:                  -7.676
REMARK INTRA:                  -0.306
REMARK UNBOUND:                -0.445
REMARK SMILES NC(=O)OC[C@H](N)Cc1ccccc1
REMARK SMILES IDX 5 1 6 2 7 3 8 6 9 7 10 8 14 9 11 10 13 11 12 12 4 13 2 14
REMARK SMILES IDX 1 15 3 16
REMARK H PARENT 7 4 7 5 1 17 1 18
REMARK Flexibility Score: inf
ROOT
ATOM      1  C   UNL     1      23.563   9.768  10.776  1.00  0.00     0.253 C 
ENDROOT
BRANCH   1   2
ATOM      2  C   UNL     1      24.318  10.994  11.325  1.00  0.00     0.093 C 
BRANCH   2   3
ATOM      3  N   UNL     1      23.414  11.788  12.160  1.00  0.00    -0.325 NA
ATOM      4  H   UNL     1      22.868  11.137  12.770  1.00  0.00     0.119 HD
ATOM      5  H   UNL     1      22.707  12.248  11.540  1.00  0.00     0.119 HD
ENDBRANCH   2   3
BRANCH   2   6
ATOM      6  C   UNL     1      24.877  11.884  10.191  1.00  0.00     0.057 C 
BRANCH   6   7
ATOM      7  C   UNL     1      26.372  11.753  10.030  1.00  0.00    -0.046 A 
ATOM      8  C   UNL     1      26.919  11.248   8.838  1.00  0.00     0.004 A 
ATOM      9  C   UNL     1      27.229  12.099  11.088  1.00  0.00     0.004 A 
ATOM     10  C   UNL     1      28.303  11.091   8.709  1.00  0.00     0.000 A 
ATOM     11  C   UNL     1      28.612  11.941  10.954  1.00  0.00     0.000 A 
ATOM     12  C   UNL     1      29.148  11.436   9.767  1.00  0.00     0.000 A 
ENDBRANCH   6   7
ENDBRANCH   2   6
ENDBRANCH   1   2
BRANCH   1  13
ATOM     13  O   UNL     1      24.438   8.962   9.993  1.00  0.00    -0.448 OA
BRANCH  13  14
ATOM     14  C   UNL     1      24.883   7.704  10.406  1.00  0.00     0.404 C 
ATOM     15  N   UNL     1      26.281   7.458  10.522  1.00  0.00    -0.335 N 
ATOM     16  O   UNL     1      24.061   6.785  10.671  1.00  0.00    -0.225 OA
ATOM     17  H   UNL     1      26.966   8.211  10.292  1.00  0.00     0.163 HD
ATOM     18  H   UNL     1      26.632   6.524  10.829  1.00  0.00     0.163 HD
ENDBRANCH  13  14
ENDBRANCH   1  13
TORSDOF 6
ENDMDL
MODEL 13
REMARK VINA RESULT:    -5.668      1.756      2.536
REMARK INTER + INTRA:          -7.935
REMARK INTER:                  -7.880
REMARK INTRA:                  -0.055
REMARK UNBOUND:                -0.445
REMARK SMILES NC(=O)OC[C@H](N)Cc1ccccc1
REMARK SMILES IDX 5 1 6 2 7 3 8 6 9 7 10 8 14 9 11 10 13 11 12 12 4 13 2 14
REMARK SMILES IDX 1 15 3 16
REMARK H PARENT 7 4 7 5 1 17 1 18
REMARK Flexibility Score: inf
ROOT
ATOM      1  C   UNL     1      28.068   9.462   8.364  1.00  0.00     0.253 C 
ENDROOT
BRANCH   1   2
ATOM      2  C   UNL     1      28.097  10.627   9.372  1.00  0.00     0.093 C 
BRANCH   2   3
ATOM      3  N   UNL     1      27.940  10.100  10.730  1.00  0.00    -0.325 NA
ATOM      4  H   UNL     1      26.967   9.730  10.832  1.00  0.00     0.119 HD
ATOM      5  H   UNL     1      28.008  10.895  11.406  1.00  0.00     0.119 HD
ENDBRANCH   2   3
BRANCH   2   6
ATOM      6  C   UNL     1      26.979  11.658   9.095  1.00  0.00     0.057 C 
BRANCH   6   7
ATOM      7  C   UNL     1      25.825  11.541  10.061  1.00  0.00    -0.046 A 
ATOM      8  C   UNL     1      24.953  10.440  10.000  1.00  0.00     0.004 A 
ATOM      9  C   UNL     1      25.591  12.553  11.008  1.00  0.00     0.004 A 
ATOM     10  C   UNL     1      23.863  10.357  10.872  1.00  0.00     0.000 A 
ATOM     11  C   UNL     1      24.500  12.464  11.878  1.00  0.00     0.000 A 
ATOM     12  C   UNL     1      23.636  11.368  11.809  1.00  0.00     0.000 A 
ENDBRANCH   6   7
ENDBRANCH   2   6
ENDBRANCH   1   2
BRANCH   1  13
ATOM     13  O   UNL     1      28.216   8.220   9.044  1.00  0.00    -0.448 OA
BRANCH  13  14
ATOM     14  C   UNL     1      27.208   7.253   9.087  1.00  0.00     0.404 C 
ATOM     15  N   UNL     1      26.349   7.186  10.221  1.00  0.00    -0.335 N 
ATOM     16  O   UNL     1      27.056   6.439   8.136  1.00  0.00    -0.225 OA
ATOM     17  H   UNL     1      26.478   7.849  11.016  1.00  0.00     0.163 HD
ATOM     18  H   UNL     1      25.590   6.470  10.270  1.00  0.00     0.163 HD
ENDBRANCH  13  14
ENDBRANCH   1  13
TORSDOF 6
ENDMDL
MODEL 14
REMARK VINA RESULT:    -5.666      4.135      4.677
REMARK INTER + INTRA:          -7.933
REMARK INTER:                  -7.709
REMARK INTRA:                  -0.223
REMARK UNBOUND:                -0.445
REMARK SMILES NC(=O)OC[C@H](N)Cc1ccccc1
REMARK SMILES IDX 5 1 6 2 7 3 8 6 9 7 10 8 14 9 11 10 13 11 12 12 4 13 2 14
REMARK SMILES IDX 1 15 3 16
REMARK H PARENT 7 4 7 5 1 17 1 18
REMARK Flexibility Score: inf
ROOT
ATOM      1  C   UNL     1      28.659  13.595  10.809  1.00  0.00     0.253 C 
ENDROOT
BRANCH   1   2
ATOM      2  C   UNL     1      27.764  12.398  11.183  1.00  0.00     0.093 C 
BRANCH   2   3
ATOM      3  N   UNL     1      28.604  11.232  11.468  1.00  0.00    -0.325 NA
ATOM      4  H   UNL     1      28.424  10.506  10.736  1.00  0.00     0.119 HD
ATOM      5  H   UNL     1      28.287  10.805  12.368  1.00  0.00     0.119 HD
ENDBRANCH   2   3
BRANCH   2   6
ATOM      6  C   UNL     1      26.771  12.045  10.051  1.00  0.00     0.057 C 
BRANCH   6   7
ATOM      7  C   UNL     1      25.447  11.542  10.573  1.00  0.00    -0.046 A 
ATOM      8  C   UNL     1      24.994  10.253  10.243  1.00  0.00     0.004 A 
ATOM      9  C   UNL     1      24.637  12.375  11.363  1.00  0.00     0.004 A 
ATOM     10  C   UNL     1      23.749   9.807  10.696  1.00  0.00     0.000 A 
ATOM     11  C   UNL     1      23.393  11.924  11.815  1.00  0.00     0.000 A 
ATOM     12  C   UNL     1      22.948  10.642  11.480  1.00  0.00     0.000 A 
ENDBRANCH   6   7
ENDBRANCH   2   6
ENDBRANCH   1   2
BRANCH   1  13
ATOM     13  O   UNL     1      29.562  13.884  11.872  1.00  0.00    -0.448 OA
BRANCH  13  14
ATOM     14  C   UNL     1      30.799  14.501  11.671  1.00  0.00     0.404 C 
ATOM     15  N   UNL     1      31.049  15.187  10.448  1.00  0.00    -0.335 N 
ATOM     16  O   UNL     1      31.695  14.451  12.556  1.00  0.00    -0.225 OA
ATOM     17  H   UNL     1      30.315  15.220   9.706  1.00  0.00     0.163 HD
ATOM     18  H   UNL     1      31.968  15.653  10.280  1.00  0.00     0.163 HD
ENDBRANCH  13  14
ENDBRANCH   1  13
TORSDOF 6
ENDMDL
MODEL 15
REMARK VINA RESULT:    -5.534      4.346      5.656
REMARK INTER + INTRA:          -7.758
REMARK INTER:                  -7.542
REMARK INTRA:                  -0.217
REMARK UNBOUND:                -0.445
REMARK SMILES NC(=O)OC[C@H](N)Cc1ccccc1
REMARK SMILES IDX 5 1 6 2 7 3 8 6 9 7 10 8 14 9 11 10 13 11 12 12 4 13 2 14
REMARK SMILES IDX 1 15 3 16
REMARK H PARENT 7 4 7 5 1 17 1 18
REMARK Flexibility Score: inf
ROOT
ATOM      1  C   UNL     1      26.444  13.897  10.761  1.00  0.00     0.253 C 
ENDROOT
BRANCH   1   2
ATOM      2  C   UNL     1      26.643  12.386  10.990  1.00  0.00     0.093 C 
BRANCH   2   3
ATOM      3  N   UNL     1      28.007  12.141  11.465  1.00  0.00    -0.325 NA
ATOM      4  H   UNL     1      27.964  11.879  12.477  1.00  0.00     0.119 HD
ATOM      5  H   UNL     1      28.537  13.043  11.433  1.00  0.00     0.119 HD
ENDBRANCH   2   3
BRANCH   2   6
ATOM      6  C   UNL     1      26.401  11.571   9.698  1.00  0.00     0.057 C 
BRANCH   6   7
ATOM      7  C   UNL     1      25.578  10.329   9.938  1.00  0.00    -0.046 A 
ATOM      8  C   UNL     1      26.129   9.054   9.718  1.00  0.00     0.004 A 
ATOM      9  C   UNL     1      24.238  10.438  10.348  1.00  0.00     0.004 A 
ATOM     10  C   UNL     1      25.350   7.909   9.904  1.00  0.00     0.000 A 
ATOM     11  C   UNL     1      23.464   9.289  10.533  1.00  0.00     0.000 A 
ATOM     12  C   UNL     1      24.018   8.026  10.310  1.00  0.00     0.000 A 
ENDBRANCH   6   7
ENDBRANCH   2   6
ENDBRANCH   1   2
BRANCH   1  13
ATOM     13  O   UNL     1      27.660  14.596  11.011  1.00  0.00    -0.448 OA
BRANCH  13  14
ATOM     14  C   UNL     1      27.781  15.980  10.871  1.00  0.00     0.404 C 
ATOM     15  N   UNL     1      27.769  16.556   9.568  1.00  0.00    -0.335 N 
ATOM     16  O   UNL     1      27.908  16.722  11.883  1.00  0.00    -0.225 OA
ATOM     17  H   UNL     1      27.677  15.946   8.726  1.00  0.00     0.163 HD
ATOM     18  H   UNL     1      27.858  17.589   9.445  1.00  0.00     0.163 HD
ENDBRANCH  13  14
ENDBRANCH   1  13
TORSDOF 6
ENDMDL
