MODEL 1
REMARK VINA RESULT:    -9.751      0.000      0.000
REMARK INTER + INTRA:         -15.576
REMARK INTER:                 -13.457
REMARK INTRA:                  -2.119
REMARK UNBOUND:                -2.119
REMARK SMILES CC(C)Oc1ccc(-c2nn([C@@H](C)c3oc4ccc(F)cc4c(=O)c3-c3cccc(F)c3)c3ncnc(N)c23)cc1F
REMARK SMILES IDX 9 1 10 2 11 3 33 4 39 5 37 6 36 7 35 8 34 9 8 10 5 11 41 12
REMARK SMILES IDX 6 13 42 14 40 15 7 16 4 17 2 18 1 19 3 20 12 21 13 22 14 23
REMARK SMILES IDX 25 24 15 25 23 26 16 27 24 28 22 29 17 30 21 31 18 32 19 33
REMARK SMILES IDX 20 34 26 35 27 36 32 37 28 38 30 39 29 40 31 41 38 42
REMARK H PARENT 38 43 38 44
REMARK Flexibility Score: inf
ROOT
ATOM      1  C   UNL     1      12.385  12.569  16.811  1.00  0.00     0.106 A 
ATOM      2  N   UNL     1      13.329  12.722  17.774  1.00  0.00    -0.169 NA
ATOM      3  N   UNL     1      14.104  11.642  17.773  1.00  0.00    -0.236 N 
ATOM      4  C   UNL     1      13.656  10.804  16.821  1.00  0.00     0.164 A 
ATOM      5  C   UNL     1      12.590  11.349  16.172  1.00  0.00     0.089 A 
ATOM      6  C   UNL     1      12.022  10.668  15.089  1.00  0.00     0.138 A 
ATOM      7  N   UNL     1      12.531   9.440  14.779  1.00  0.00    -0.219 NA
ATOM      8  C   UNL     1      13.578   8.897  15.476  1.00  0.00     0.226 A 
ATOM      9  N   UNL     1      14.162   9.590  16.496  1.00  0.00    -0.217 NA
ENDROOT
BRANCH   1  10
ATOM     10  C   UNL     1      11.295  13.536  16.599  1.00  0.00     0.006 A 
ATOM     11  C   UNL     1       9.205  15.376  16.170  1.00  0.00     0.155 A 
ATOM     12  C   UNL     1       9.103  14.408  17.179  1.00  0.00     0.165 A 
ATOM     13  C   UNL     1      10.388  15.448  15.405  1.00  0.00     0.050 A 
ATOM     14  F   UNL     1       7.983  14.335  17.942  1.00  0.00    -0.203 F 
ATOM     15  C   UNL     1      10.143  13.499  17.400  1.00  0.00     0.053 A 
ATOM     16  C   UNL     1      11.425  14.536  15.624  1.00  0.00     0.014 A 
BRANCH  11  17
ATOM     17  O   UNL     1       8.115  16.239  15.967  1.00  0.00    -0.488 OA
BRANCH  17  18
ATOM     18  C   UNL     1       6.962  15.958  15.169  1.00  0.00     0.167 C 
ATOM     19  C   UNL     1       5.722  16.059  16.053  1.00  0.00     0.052 C 
ATOM     20  C   UNL     1       7.063  14.557  14.556  1.00  0.00     0.052 C 
ENDBRANCH  17  18
ENDBRANCH  11  17
ENDBRANCH   1  10
BRANCH   3  21
ATOM     21  C   UNL     1      15.254  11.462  18.664  1.00  0.00     0.174 C 
ATOM     22  C   UNL     1      16.407  12.380  18.242  1.00  0.00     0.042 C 
BRANCH  21  23
ATOM     23  C   UNL     1      14.833  11.690  20.103  1.00  0.00     0.140 A 
ATOM     24  C   UNL     1      13.866  10.870  20.731  1.00  0.00     0.071 A 
ATOM     25  O   UNL     1      15.343  12.731  20.760  1.00  0.00    -0.458 OA
ATOM     26  C   UNL     1      13.466  11.179  22.041  1.00  0.00     0.200 A 
ATOM     27  C   UNL     1      14.992  13.054  21.999  1.00  0.00     0.138 A 
ATOM     28  O   UNL     1      12.603  10.463  22.624  1.00  0.00    -0.288 OA
ATOM     29  C   UNL     1      14.030  12.287  22.693  1.00  0.00     0.068 A 
ATOM     30  C   UNL     1      15.574  14.169  22.613  1.00  0.00     0.051 A 
ATOM     31  C   UNL     1      13.667  12.655  24.001  1.00  0.00     0.055 A 
ATOM     32  C   UNL     1      15.204  14.528  23.912  1.00  0.00     0.043 A 
ATOM     33  C   UNL     1      14.253  13.773  24.606  1.00  0.00     0.124 A 
ATOM     34  F   UNL     1      13.896  14.127  25.865  1.00  0.00    -0.207 F 
BRANCH  24  35
ATOM     35  C   UNL     1      13.271   9.713  20.033  1.00  0.00    -0.008 A 
ATOM     36  C   UNL     1      13.995   8.518  19.896  1.00  0.00     0.009 A 
ATOM     37  C   UNL     1      11.971   9.805  19.509  1.00  0.00     0.048 A 
ATOM     38  C   UNL     1      13.418   7.422  19.244  1.00  0.00     0.004 A 
ATOM     39  C   UNL     1      11.397   8.706  18.862  1.00  0.00     0.123 A 
ATOM     40  C   UNL     1      12.120   7.516  18.731  1.00  0.00     0.039 A 
ATOM     41  F   UNL     1      10.138   8.792  18.363  1.00  0.00    -0.207 F 
ENDBRANCH  24  35
ENDBRANCH  21  23
ENDBRANCH   3  21
BRANCH   6  42
ATOM     42  N   UNL     1      11.015  11.245  14.255  1.00  0.00    -0.383 N 
ATOM     43  H   UNL     1      10.716  10.746  13.389  1.00  0.00     0.158 HD
ATOM     44  H   UNL     1      10.706  12.233  14.374  1.00  0.00     0.158 HD
ENDBRANCH   6  42
TORSDOF 7
ENDMDL
MODEL 2
REMARK VINA RESULT:    -9.642      0.952      1.210
REMARK INTER + INTRA:         -15.425
REMARK INTER:                 -13.358
REMARK INTRA:                  -2.067
REMARK UNBOUND:                -2.119
REMARK SMILES CC(C)Oc1ccc(-c2nn([C@@H](C)c3oc4ccc(F)cc4c(=O)c3-c3cccc(F)c3)c3ncnc(N)c23)cc1F
REMARK SMILES IDX 9 1 10 2 11 3 33 4 39 5 37 6 36 7 35 8 34 9 8 10 5 11 41 12
REMARK SMILES IDX 6 13 42 14 40 15 7 16 4 17 2 18 1 19 3 20 12 21 13 22 14 23
REMARK SMILES IDX 25 24 15 25 23 26 16 27 24 28 22 29 17 30 21 31 18 32 19 33
REMARK SMILES IDX 20 34 26 35 27 36 32 37 28 38 30 39 29 40 31 41 38 42
REMARK H PARENT 38 43 38 44
REMARK Flexibility Score: inf
ROOT
ATOM      1  C   UNL     1      12.654  12.505  16.627  1.00  0.00     0.106 A 
ATOM      2  N   UNL     1      13.584  12.731  17.590  1.00  0.00    -0.169 NA
ATOM      3  N   UNL     1      14.332  11.639  17.711  1.00  0.00    -0.236 N 
ATOM      4  C   UNL     1      13.883  10.722  16.836  1.00  0.00     0.164 A 
ATOM      5  C   UNL     1      12.843  11.223  16.115  1.00  0.00     0.089 A 
ATOM      6  C   UNL     1      12.280  10.452  15.092  1.00  0.00     0.138 A 
ATOM      7  N   UNL     1      12.766   9.189  14.913  1.00  0.00    -0.219 NA
ATOM      8  C   UNL     1      13.786   8.694  15.682  1.00  0.00     0.226 A 
ATOM      9  N   UNL     1      14.366   9.471  16.642  1.00  0.00    -0.217 NA
ENDROOT
BRANCH   1  10
ATOM     10  C   UNL     1      11.593  13.469  16.298  1.00  0.00     0.006 A 
ATOM     11  C   UNL     1       9.562  15.325  15.690  1.00  0.00     0.155 A 
ATOM     12  C   UNL     1      10.800  15.387  15.035  1.00  0.00     0.165 A 
ATOM     13  C   UNL     1       9.330  14.292  16.622  1.00  0.00     0.050 A 
ATOM     14  F   UNL     1      11.038  16.360  14.118  1.00  0.00    -0.203 F 
ATOM     15  C   UNL     1      11.807  14.462  15.328  1.00  0.00     0.053 A 
ATOM     16  C   UNL     1      10.339  13.370  16.917  1.00  0.00     0.014 A 
BRANCH  11  17
ATOM     17  O   UNL     1       8.601  16.303  15.384  1.00  0.00    -0.488 OA
BRANCH  17  18
ATOM     18  C   UNL     1       7.391  16.090  14.653  1.00  0.00     0.167 C 
ATOM     19  C   UNL     1       6.350  15.495  15.598  1.00  0.00     0.052 C 
ATOM     20  C   UNL     1       7.639  15.141  13.474  1.00  0.00     0.052 C 
ENDBRANCH  17  18
ENDBRANCH  11  17
ENDBRANCH   1  10
BRANCH   3  21
ATOM     21  C   UNL     1      15.461  11.522  18.640  1.00  0.00     0.174 C 
ATOM     22  C   UNL     1      16.629  12.400  18.176  1.00  0.00     0.042 C 
BRANCH  21  23
ATOM     23  C   UNL     1      15.008  11.863  20.047  1.00  0.00     0.140 A 
ATOM     24  C   UNL     1      14.052  11.074  20.728  1.00  0.00     0.071 A 
ATOM     25  O   UNL     1      15.481  12.970  20.619  1.00  0.00    -0.458 OA
ATOM     26  C   UNL     1      13.620  11.485  22.000  1.00  0.00     0.200 A 
ATOM     27  C   UNL     1      15.100  13.389  21.819  1.00  0.00     0.138 A 
ATOM     28  O   UNL     1      12.766  10.799  22.630  1.00  0.00    -0.288 OA
ATOM     29  C   UNL     1      14.145  12.660  22.562  1.00  0.00     0.068 A 
ATOM     30  C   UNL     1      15.643  14.567  22.344  1.00  0.00     0.051 A 
ATOM     31  C   UNL     1      13.749  13.129  23.828  1.00  0.00     0.055 A 
ATOM     32  C   UNL     1      15.241  15.027  23.601  1.00  0.00     0.043 A 
ATOM     33  C   UNL     1      14.297  14.311  24.342  1.00  0.00     0.124 A 
ATOM     34  F   UNL     1      13.909  14.762  25.560  1.00  0.00    -0.207 F 
BRANCH  24  35
ATOM     35  C   UNL     1      13.498   9.846  20.125  1.00  0.00    -0.008 A 
ATOM     36  C   UNL     1      14.249   8.660  20.115  1.00  0.00     0.009 A 
ATOM     37  C   UNL     1      12.212   9.862  19.561  1.00  0.00     0.048 A 
ATOM     38  C   UNL     1      13.711   7.497  19.552  1.00  0.00     0.004 A 
ATOM     39  C   UNL     1      11.677   8.696  19.003  1.00  0.00     0.123 A 
ATOM     40  C   UNL     1      12.426   7.515  19.000  1.00  0.00     0.039 A 
ATOM     41  F   UNL     1      10.430   8.710  18.466  1.00  0.00    -0.207 F 
ENDBRANCH  24  35
ENDBRANCH  21  23
ENDBRANCH   3  21
BRANCH   6  42
ATOM     42  N   UNL     1      11.303  10.966  14.183  1.00  0.00    -0.383 N 
ATOM     43  H   UNL     1      10.293  10.930  14.440  1.00  0.00     0.158 HD
ATOM     44  H   UNL     1      11.542  11.196  13.196  1.00  0.00     0.158 HD
ENDBRANCH   6  42
TORSDOF 7
ENDMDL
MODEL 3
REMARK VINA RESULT:    -9.437      3.113      8.617
REMARK INTER + INTRA:         -15.142
REMARK INTER:                 -13.153
REMARK INTRA:                  -1.989
REMARK UNBOUND:                -2.119
REMARK SMILES CC(C)Oc1ccc(-c2nn([C@@H](C)c3oc4ccc(F)cc4c(=O)c3-c3cccc(F)c3)c3ncnc(N)c23)cc1F
REMARK SMILES IDX 9 1 10 2 11 3 33 4 39 5 37 6 36 7 35 8 34 9 8 10 5 11 41 12
REMARK SMILES IDX 6 13 42 14 40 15 7 16 4 17 2 18 1 19 3 20 12 21 13 22 14 23
REMARK SMILES IDX 25 24 15 25 23 26 16 27 24 28 22 29 17 30 21 31 18 32 19 33
REMARK SMILES IDX 20 34 26 35 27 36 32 37 28 38 30 39 29 40 31 41 38 42
REMARK H PARENT 38 43 38 44
REMARK Flexibility Score: inf
ROOT
ATOM      1  C   UNL     1      13.469  10.822  18.687  1.00  0.00     0.106 A 
ATOM      2  N   UNL     1      12.672  10.543  17.623  1.00  0.00    -0.169 NA
ATOM      3  N   UNL     1      12.764  11.548  16.758  1.00  0.00    -0.236 N 
ATOM      4  C   UNL     1      13.610  12.463  17.266  1.00  0.00     0.164 A 
ATOM      5  C   UNL     1      14.097  12.045  18.467  1.00  0.00     0.089 A 
ATOM      6  C   UNL     1      15.056  12.821  19.127  1.00  0.00     0.138 A 
ATOM      7  N   UNL     1      15.409  14.010  18.557  1.00  0.00    -0.219 NA
ATOM      8  C   UNL     1      14.871  14.426  17.367  1.00  0.00     0.226 A 
ATOM      9  N   UNL     1      13.976  13.640  16.702  1.00  0.00    -0.217 NA
ENDROOT
BRANCH   1  10
ATOM     10  C   UNL     1      13.534   9.968  19.884  1.00  0.00     0.006 A 
ATOM     11  C   UNL     1      13.635   8.327  22.171  1.00  0.00     0.155 A 
ATOM     12  C   UNL     1      14.364   7.989  21.022  1.00  0.00     0.165 A 
ATOM     13  C   UNL     1      12.889   9.524  22.183  1.00  0.00     0.050 A 
ATOM     14  F   UNL     1      15.107   6.854  20.996  1.00  0.00    -0.203 F 
ATOM     15  C   UNL     1      14.323   8.806  19.889  1.00  0.00     0.053 A 
ATOM     16  C   UNL     1      12.845  10.338  21.047  1.00  0.00     0.014 A 
BRANCH  11  17
ATOM     17  O   UNL     1      13.682   7.450  23.268  1.00  0.00    -0.488 OA
BRANCH  17  18
ATOM     18  C   UNL     1      12.680   6.493  23.620  1.00  0.00     0.167 C 
ATOM     19  C   UNL     1      12.090   6.882  24.974  1.00  0.00     0.052 C 
ATOM     20  C   UNL     1      13.284   5.086  23.692  1.00  0.00     0.052 C 
ENDBRANCH  17  18
ENDBRANCH  11  17
ENDBRANCH   1  10
BRANCH   3  21
ATOM     21  C   UNL     1      12.062  11.584  15.472  1.00  0.00     0.174 C 
ATOM     22  C   UNL     1      11.536  10.191  15.109  1.00  0.00     0.042 C 
BRANCH  21  23
ATOM     23  C   UNL     1      10.958  12.624  15.517  1.00  0.00     0.140 A 
ATOM     24  C   UNL     1      10.734  13.513  14.440  1.00  0.00     0.071 A 
ATOM     25  O   UNL     1      10.231  12.735  16.628  1.00  0.00    -0.458 OA
ATOM     26  C   UNL     1       9.744  14.500  14.574  1.00  0.00     0.200 A 
ATOM     27  C   UNL     1       9.286  13.652  16.792  1.00  0.00     0.138 A 
ATOM     28  O   UNL     1       9.524  15.308  13.628  1.00  0.00    -0.288 OA
ATOM     29  C   UNL     1       9.004  14.580  15.765  1.00  0.00     0.068 A 
ATOM     30  C   UNL     1       8.573  13.702  17.995  1.00  0.00     0.051 A 
ATOM     31  C   UNL     1       8.004  15.549  15.965  1.00  0.00     0.055 A 
ATOM     32  C   UNL     1       7.584  14.671  18.186  1.00  0.00     0.043 A 
ATOM     33  C   UNL     1       7.299  15.593  17.174  1.00  0.00     0.124 A 
ATOM     34  F   UNL     1       6.340  16.532  17.365  1.00  0.00    -0.207 F 
BRANCH  24  35
ATOM     35  C   UNL     1      11.524  13.428  13.196  1.00  0.00    -0.008 A 
ATOM     36  C   UNL     1      10.959  12.882  12.033  1.00  0.00     0.009 A 
ATOM     37  C   UNL     1      12.846  13.901  13.174  1.00  0.00     0.048 A 
ATOM     38  C   UNL     1      11.711  12.816  10.855  1.00  0.00     0.004 A 
ATOM     39  C   UNL     1      13.593  13.837  11.992  1.00  0.00     0.123 A 
ATOM     40  C   UNL     1      13.025  13.296  10.834  1.00  0.00     0.039 A 
ATOM     41  F   UNL     1      14.868  14.302  11.968  1.00  0.00    -0.207 F 
ENDBRANCH  24  35
ENDBRANCH  21  23
ENDBRANCH   3  21
BRANCH   6  42
ATOM     42  N   UNL     1      15.737  12.374  20.302  1.00  0.00    -0.383 N 
ATOM     43  H   UNL     1      16.007  13.066  21.035  1.00  0.00     0.158 HD
ATOM     44  H   UNL     1      16.146  11.418  20.367  1.00  0.00     0.158 HD
ENDBRANCH   6  42
TORSDOF 7
ENDMDL
MODEL 4
REMARK VINA RESULT:    -9.256     11.820     14.870
REMARK INTER + INTRA:         -14.893
REMARK INTER:                 -13.509
REMARK INTRA:                  -1.384
REMARK UNBOUND:                -2.119
REMARK SMILES CC(C)Oc1ccc(-c2nn([C@@H](C)c3oc4ccc(F)cc4c(=O)c3-c3cccc(F)c3)c3ncnc(N)c23)cc1F
REMARK SMILES IDX 9 1 10 2 11 3 33 4 39 5 37 6 36 7 35 8 34 9 8 10 5 11 41 12
REMARK SMILES IDX 6 13 42 14 40 15 7 16 4 17 2 18 1 19 3 20 12 21 13 22 14 23
REMARK SMILES IDX 25 24 15 25 23 26 16 27 24 28 22 29 17 30 21 31 18 32 19 33
REMARK SMILES IDX 20 34 26 35 27 36 32 37 28 38 30 39 29 40 31 41 38 42
REMARK H PARENT 38 43 38 44
REMARK Flexibility Score: inf
ROOT
ATOM      1  C   UNL     1      13.755  15.852   6.934  1.00  0.00     0.106 A 
ATOM      2  N   UNL     1      14.224  15.182   5.850  1.00  0.00    -0.169 NA
ATOM      3  N   UNL     1      14.740  16.068   5.004  1.00  0.00    -0.236 N 
ATOM      4  C   UNL     1      14.599  17.293   5.540  1.00  0.00     0.164 A 
ATOM      5  C   UNL     1      14.005  17.211   6.762  1.00  0.00     0.089 A 
ATOM      6  C   UNL     1      13.836  18.372   7.525  1.00  0.00     0.138 A 
ATOM      7  N   UNL     1      14.220  19.557   6.965  1.00  0.00    -0.219 NA
ATOM      8  C   UNL     1      14.777  19.615   5.714  1.00  0.00     0.226 A 
ATOM      9  N   UNL     1      14.988  18.473   4.998  1.00  0.00    -0.217 NA
ENDROOT
BRANCH   1  10
ATOM     10  C   UNL     1      13.028  15.191   8.029  1.00  0.00     0.006 A 
ATOM     11  C   UNL     1      11.627  13.909  10.111  1.00  0.00     0.155 A 
ATOM     12  C   UNL     1      13.029  13.933  10.107  1.00  0.00     0.165 A 
ATOM     13  C   UNL     1      10.927  14.576   9.084  1.00  0.00     0.050 A 
ATOM     14  F   UNL     1      13.724  13.316  11.097  1.00  0.00    -0.203 F 
ATOM     15  C   UNL     1      13.727  14.576   9.080  1.00  0.00     0.053 A 
ATOM     16  C   UNL     1      11.626  15.216   8.055  1.00  0.00     0.014 A 
BRANCH  11  17
ATOM     17  O   UNL     1      10.979  13.215  11.146  1.00  0.00    -0.488 OA
BRANCH  17  18
ATOM     18  C   UNL     1      10.858  13.656  12.502  1.00  0.00     0.167 C 
ATOM     19  C   UNL     1      10.966  12.440  13.420  1.00  0.00     0.052 C 
ATOM     20  C   UNL     1       9.514  14.362  12.716  1.00  0.00     0.052 C 
ENDBRANCH  17  18
ENDBRANCH  11  17
ENDBRANCH   1  10
BRANCH   3  21
ATOM     21  C   UNL     1      15.368  15.709   3.729  1.00  0.00     0.174 C 
ATOM     22  C   UNL     1      15.308  16.888   2.751  1.00  0.00     0.042 C 
BRANCH  21  23
ATOM     23  C   UNL     1      16.789  15.233   3.970  1.00  0.00     0.140 A 
ATOM     24  C   UNL     1      17.257  14.004   3.449  1.00  0.00     0.071 A 
ATOM     25  O   UNL     1      17.584  15.967   4.747  1.00  0.00    -0.458 OA
ATOM     26  C   UNL     1      18.558  13.586   3.770  1.00  0.00     0.200 A 
ATOM     27  C   UNL     1      18.820  15.607   5.071  1.00  0.00     0.138 A 
ATOM     28  O   UNL     1      19.000  12.492   3.318  1.00  0.00    -0.288 OA
ATOM     29  C   UNL     1      19.360  14.392   4.594  1.00  0.00     0.068 A 
ATOM     30  C   UNL     1      19.586  16.436   5.899  1.00  0.00     0.051 A 
ATOM     31  C   UNL     1      20.669  14.027   4.959  1.00  0.00     0.055 A 
ATOM     32  C   UNL     1      20.884  16.064   6.258  1.00  0.00     0.043 A 
ATOM     33  C   UNL     1      21.425  14.862   5.790  1.00  0.00     0.124 A 
ATOM     34  F   UNL     1      22.684  14.504   6.143  1.00  0.00    -0.207 F 
BRANCH  24  35
ATOM     35  C   UNL     1      16.403  13.158   2.592  1.00  0.00    -0.008 A 
ATOM     36  C   UNL     1      15.665  12.101   3.148  1.00  0.00     0.009 A 
ATOM     37  C   UNL     1      16.323  13.414   1.213  1.00  0.00     0.048 A 
ATOM     38  C   UNL     1      14.849  11.312   2.331  1.00  0.00     0.004 A 
ATOM     39  C   UNL     1      15.503  12.625   0.400  1.00  0.00     0.123 A 
ATOM     40  C   UNL     1      14.765  11.576   0.959  1.00  0.00     0.039 A 
ATOM     41  F   UNL     1      15.419  12.878  -0.931  1.00  0.00    -0.207 F 
ENDBRANCH  24  35
ENDBRANCH  21  23
ENDBRANCH   3  21
BRANCH   6  42
ATOM     42  N   UNL     1      13.377  18.350   8.879  1.00  0.00    -0.383 N 
ATOM     43  H   UNL     1      12.594  18.975   9.167  1.00  0.00     0.158 HD
ATOM     44  H   UNL     1      13.921  17.876   9.632  1.00  0.00     0.158 HD
ENDBRANCH   6  42
TORSDOF 7
ENDMDL
MODEL 5
REMARK VINA RESULT:    -9.220      4.125      5.613
REMARK INTER + INTRA:         -14.843
REMARK INTER:                 -13.298
REMARK INTRA:                  -1.545
REMARK UNBOUND:                -2.119
REMARK SMILES CC(C)Oc1ccc(-c2nn([C@@H](C)c3oc4ccc(F)cc4c(=O)c3-c3cccc(F)c3)c3ncnc(N)c23)cc1F
REMARK SMILES IDX 9 1 10 2 11 3 33 4 39 5 37 6 36 7 35 8 34 9 8 10 5 11 41 12
REMARK SMILES IDX 6 13 42 14 40 15 7 16 4 17 2 18 1 19 3 20 12 21 13 22 14 23
REMARK SMILES IDX 25 24 15 25 23 26 16 27 24 28 22 29 17 30 21 31 18 32 19 33
REMARK SMILES IDX 20 34 26 35 27 36 32 37 28 38 30 39 29 40 31 41 38 42
REMARK H PARENT 38 43 38 44
REMARK Flexibility Score: inf
ROOT
ATOM      1  C   UNL     1      11.883  12.986  13.680  1.00  0.00     0.106 A 
ATOM      2  N   UNL     1      12.465  11.936  14.314  1.00  0.00    -0.169 NA
ATOM      3  N   UNL     1      11.735  11.639  15.384  1.00  0.00    -0.236 N 
ATOM      4  C   UNL     1      10.697  12.493  15.437  1.00  0.00     0.164 A 
ATOM      5  C   UNL     1      10.732  13.347  14.376  1.00  0.00     0.089 A 
ATOM      6  C   UNL     1       9.693  14.269  14.201  1.00  0.00     0.138 A 
ATOM      7  N   UNL     1       8.719  14.311  15.157  1.00  0.00    -0.219 NA
ATOM      8  C   UNL     1       8.732  13.468  16.237  1.00  0.00     0.226 A 
ATOM      9  N   UNL     1       9.719  12.535  16.373  1.00  0.00    -0.217 NA
ENDROOT
BRANCH   1  10
ATOM     10  C   UNL     1      12.480  13.643  12.506  1.00  0.00     0.006 A 
ATOM     11  C   UNL     1      13.601  14.902  10.249  1.00  0.00     0.155 A 
ATOM     12  C   UNL     1      13.593  15.550  11.493  1.00  0.00     0.165 A 
ATOM     13  C   UNL     1      13.084  13.593  10.154  1.00  0.00     0.050 A 
ATOM     14  F   UNL     1      14.105  16.801  11.613  1.00  0.00    -0.203 F 
ATOM     15  C   UNL     1      13.045  14.924  12.617  1.00  0.00     0.053 A 
ATOM     16  C   UNL     1      12.533  12.970  11.278  1.00  0.00     0.014 A 
BRANCH  11  17
ATOM     17  O   UNL     1      14.129  15.594   9.146  1.00  0.00    -0.488 OA
BRANCH  17  18
ATOM     18  C   UNL     1      13.707  15.452   7.788  1.00  0.00     0.167 C 
ATOM     19  C   UNL     1      14.745  14.618   7.039  1.00  0.00     0.052 C 
ATOM     20  C   UNL     1      13.557  16.827   7.127  1.00  0.00     0.052 C 
ENDBRANCH  17  18
ENDBRANCH  11  17
ENDBRANCH   1  10
BRANCH   3  21
ATOM     21  C   UNL     1      12.043  10.537  16.301  1.00  0.00     0.174 C 
ATOM     22  C   UNL     1      12.738   9.395  15.552  1.00  0.00     0.042 C 
BRANCH  21  23
ATOM     23  C   UNL     1      12.870  11.050  17.465  1.00  0.00     0.140 A 
ATOM     24  C   UNL     1      12.315  11.203  18.757  1.00  0.00     0.071 A 
ATOM     25  O   UNL     1      14.129  11.424  17.238  1.00  0.00    -0.458 OA
ATOM     26  C   UNL     1      13.112  11.753  19.774  1.00  0.00     0.200 A 
ATOM     27  C   UNL     1      14.914  11.945  18.172  1.00  0.00     0.138 A 
ATOM     28  O   UNL     1      12.641  11.902  20.937  1.00  0.00    -0.288 OA
ATOM     29  C   UNL     1      14.433  12.134  19.487  1.00  0.00     0.068 A 
ATOM     30  C   UNL     1      16.223  12.316  17.846  1.00  0.00     0.051 A 
ATOM     31  C   UNL     1      15.281  12.696  20.459  1.00  0.00     0.055 A 
ATOM     32  C   UNL     1      17.057  12.877  18.817  1.00  0.00     0.043 A 
ATOM     33  C   UNL     1      16.588  13.067  20.121  1.00  0.00     0.124 A 
ATOM     34  F   UNL     1      17.400  13.614  21.058  1.00  0.00    -0.207 F 
BRANCH  24  35
ATOM     35  C   UNL     1      10.922  10.810  19.047  1.00  0.00    -0.008 A 
ATOM     36  C   UNL     1      10.567   9.453  19.109  1.00  0.00     0.009 A 
ATOM     37  C   UNL     1       9.947  11.797  19.266  1.00  0.00     0.048 A 
ATOM     38  C   UNL     1       9.247   9.088  19.397  1.00  0.00     0.004 A 
ATOM     39  C   UNL     1       8.629  11.427  19.557  1.00  0.00     0.123 A 
ATOM     40  C   UNL     1       8.281  10.074  19.623  1.00  0.00     0.039 A 
ATOM     41  F   UNL     1       7.689  12.381  19.778  1.00  0.00    -0.207 F 
ENDBRANCH  24  35
ENDBRANCH  21  23
ENDBRANCH   3  21
BRANCH   6  42
ATOM     42  N   UNL     1       9.568  15.081  13.032  1.00  0.00    -0.383 N 
ATOM     43  H   UNL     1       8.894  15.876  13.028  1.00  0.00     0.158 HD
ATOM     44  H   UNL     1       9.982  14.793  12.119  1.00  0.00     0.158 HD
ENDBRANCH   6  42
TORSDOF 7
ENDMDL
MODEL 6
REMARK VINA RESULT:    -9.087      2.364      7.663
REMARK INTER + INTRA:         -14.659
REMARK INTER:                 -12.892
REMARK INTRA:                  -1.767
REMARK UNBOUND:                -2.119
REMARK SMILES CC(C)Oc1ccc(-c2nn([C@@H](C)c3oc4ccc(F)cc4c(=O)c3-c3cccc(F)c3)c3ncnc(N)c23)cc1F
REMARK SMILES IDX 9 1 10 2 11 3 33 4 39 5 37 6 36 7 35 8 34 9 8 10 5 11 41 12
REMARK SMILES IDX 6 13 42 14 40 15 7 16 4 17 2 18 1 19 3 20 12 21 13 22 14 23
REMARK SMILES IDX 25 24 15 25 23 26 16 27 24 28 22 29 17 30 21 31 18 32 19 33
REMARK SMILES IDX 20 34 26 35 27 36 32 37 28 38 30 39 29 40 31 41 38 42
REMARK H PARENT 38 43 38 44
REMARK Flexibility Score: inf
ROOT
ATOM      1  C   UNL     1      12.154  10.631  20.291  1.00  0.00     0.106 A 
ATOM      2  N   UNL     1      11.061  11.221  19.744  1.00  0.00    -0.169 NA
ATOM      3  N   UNL     1      10.529  10.378  18.864  1.00  0.00    -0.236 N 
ATOM      4  C   UNL     1      11.278   9.261  18.846  1.00  0.00     0.164 A 
ATOM      5  C   UNL     1      12.300   9.360  19.741  1.00  0.00     0.089 A 
ATOM      6  C   UNL     1      13.154   8.268  19.935  1.00  0.00     0.138 A 
ATOM      7  N   UNL     1      12.957   7.167  19.153  1.00  0.00    -0.219 NA
ATOM      8  C   UNL     1      11.946   7.110  18.230  1.00  0.00     0.226 A 
ATOM      9  N   UNL     1      11.084   8.157  18.085  1.00  0.00    -0.217 NA
ENDROOT
BRANCH   1  10
ATOM     10  C   UNL     1      13.046  11.322  21.237  1.00  0.00     0.006 A 
ATOM     11  C   UNL     1      14.744  12.665  23.039  1.00  0.00     0.155 A 
ATOM     12  C   UNL     1      13.702  11.855  23.514  1.00  0.00     0.165 A 
ATOM     13  C   UNL     1      14.961  12.759  21.648  1.00  0.00     0.050 A 
ATOM     14  F   UNL     1      13.490  11.732  24.849  1.00  0.00    -0.203 F 
ATOM     15  C   UNL     1      12.863  11.181  22.622  1.00  0.00     0.053 A 
ATOM     16  C   UNL     1      14.119  12.087  20.757  1.00  0.00     0.014 A 
BRANCH  11  17
ATOM     17  O   UNL     1      15.532  13.350  23.980  1.00  0.00    -0.488 OA
BRANCH  17  18
ATOM     18  C   UNL     1      15.103  14.445  24.794  1.00  0.00     0.167 C 
ATOM     19  C   UNL     1      15.901  15.686  24.399  1.00  0.00     0.052 C 
ATOM     20  C   UNL     1      15.321  14.125  26.277  1.00  0.00     0.052 C 
ENDBRANCH  17  18
ENDBRANCH  11  17
ENDBRANCH   1  10
BRANCH   3  21
ATOM     21  C   UNL     1       9.315  10.661  18.093  1.00  0.00     0.174 C 
ATOM     22  C   UNL     1       8.075  10.547  18.986  1.00  0.00     0.042 C 
BRANCH  21  23
ATOM     23  C   UNL     1       9.428  12.024  17.436  1.00  0.00     0.140 A 
ATOM     24  C   UNL     1      10.506  12.345  16.577  1.00  0.00     0.071 A 
ATOM     25  O   UNL     1       8.520  12.953  17.732  1.00  0.00    -0.458 OA
ATOM     26  C   UNL     1      10.592  13.647  16.059  1.00  0.00     0.200 A 
ATOM     27  C   UNL     1       8.566  14.193  17.261  1.00  0.00     0.138 A 
ATOM     28  O   UNL     1      11.546  13.960  15.291  1.00  0.00    -0.288 OA
ATOM     29  C   UNL     1       9.613  14.594  16.401  1.00  0.00     0.068 A 
ATOM     30  C   UNL     1       7.573  15.108  17.628  1.00  0.00     0.051 A 
ATOM     31  C   UNL     1       9.646  15.916  15.922  1.00  0.00     0.055 A 
ATOM     32  C   UNL     1       7.616  16.421  17.150  1.00  0.00     0.043 A 
ATOM     33  C   UNL     1       8.649  16.824  16.298  1.00  0.00     0.124 A 
ATOM     34  F   UNL     1       8.687  18.099  15.839  1.00  0.00    -0.207 F 
BRANCH  24  35
ATOM     35  C   UNL     1      11.537  11.346  16.232  1.00  0.00    -0.008 A 
ATOM     36  C   UNL     1      11.256  10.328  15.308  1.00  0.00     0.009 A 
ATOM     37  C   UNL     1      12.807  11.417  16.826  1.00  0.00     0.048 A 
ATOM     38  C   UNL     1      12.242   9.392  14.976  1.00  0.00     0.004 A 
ATOM     39  C   UNL     1      13.792  10.482  16.489  1.00  0.00     0.123 A 
ATOM     40  C   UNL     1      13.510   9.472  15.564  1.00  0.00     0.039 A 
ATOM     41  F   UNL     1      15.023  10.556  17.057  1.00  0.00    -0.207 F 
ENDBRANCH  24  35
ENDBRANCH  21  23
ENDBRANCH   3  21
BRANCH   6  42
ATOM     42  N   UNL     1      14.141   8.231  20.968  1.00  0.00    -0.383 N 
ATOM     43  H   UNL     1      14.092   8.917  21.752  1.00  0.00     0.158 HD
ATOM     44  H   UNL     1      15.017   7.674  20.867  1.00  0.00     0.158 HD
ENDBRANCH   6  42
TORSDOF 7
ENDMDL
MODEL 7
REMARK VINA RESULT:    -9.051      4.963      7.641
REMARK INTER + INTRA:         -14.610
REMARK INTER:                 -13.119
REMARK INTRA:                  -1.491
REMARK UNBOUND:                -2.119
REMARK SMILES CC(C)Oc1ccc(-c2nn([C@@H](C)c3oc4ccc(F)cc4c(=O)c3-c3cccc(F)c3)c3ncnc(N)c23)cc1F
REMARK SMILES IDX 9 1 10 2 11 3 33 4 39 5 37 6 36 7 35 8 34 9 8 10 5 11 41 12
REMARK SMILES IDX 6 13 42 14 40 15 7 16 4 17 2 18 1 19 3 20 12 21 13 22 14 23
REMARK SMILES IDX 25 24 15 25 23 26 16 27 24 28 22 29 17 30 21 31 18 32 19 33
REMARK SMILES IDX 20 34 26 35 27 36 32 37 28 38 30 39 29 40 31 41 38 42
REMARK H PARENT 38 43 38 44
REMARK Flexibility Score: inf
ROOT
ATOM      1  C   UNL     1      12.800  13.571  14.468  1.00  0.00     0.106 A 
ATOM      2  N   UNL     1      13.623  14.435  15.114  1.00  0.00    -0.169 NA
ATOM      3  N   UNL     1      14.212  15.208  14.207  1.00  0.00    -0.236 N 
ATOM      4  C   UNL     1      13.772  14.839  12.991  1.00  0.00     0.164 A 
ATOM      5  C   UNL     1      12.866  13.828  13.100  1.00  0.00     0.089 A 
ATOM      6  C   UNL     1      12.227  13.350  11.951  1.00  0.00     0.138 A 
ATOM      7  N   UNL     1      12.603  13.883  10.752  1.00  0.00    -0.219 NA
ATOM      8  C   UNL     1      13.548  14.871  10.667  1.00  0.00     0.226 A 
ATOM      9  N   UNL     1      14.128  15.370  11.796  1.00  0.00    -0.217 NA
ENDROOT
BRANCH   1  10
ATOM     10  C   UNL     1      12.061  12.502  15.158  1.00  0.00     0.006 A 
ATOM     11  C   UNL     1      10.665  10.452  16.495  1.00  0.00     0.155 A 
ATOM     12  C   UNL     1      10.204  11.776  16.546  1.00  0.00     0.165 A 
ATOM     13  C   UNL     1      11.809  10.154  15.725  1.00  0.00     0.050 A 
ATOM     14  F   UNL     1       9.093  12.083  17.262  1.00  0.00    -0.203 F 
ATOM     15  C   UNL     1      10.890  12.794  15.876  1.00  0.00     0.053 A 
ATOM     16  C   UNL     1      12.496  11.173  15.059  1.00  0.00     0.014 A 
BRANCH  11  17
ATOM     17  O   UNL     1       9.959   9.477  17.218  1.00  0.00    -0.488 OA
BRANCH  17  18
ATOM     18  C   UNL     1      10.216   9.085  18.569  1.00  0.00     0.167 C 
ATOM     19  C   UNL     1       9.079   9.598  19.450  1.00  0.00     0.052 C 
ATOM     20  C   UNL     1      11.555   9.660  19.047  1.00  0.00     0.052 C 
ENDBRANCH  17  18
ENDBRANCH  11  17
ENDBRANCH   1  10
BRANCH   3  21
ATOM     21  C   UNL     1      15.153  16.283  14.538  1.00  0.00     0.174 C 
ATOM     22  C   UNL     1      14.399  17.514  15.054  1.00  0.00     0.042 C 
BRANCH  21  23
ATOM     23  C   UNL     1      16.183  15.780  15.531  1.00  0.00     0.140 A 
ATOM     24  C   UNL     1      17.566  16.009  15.344  1.00  0.00     0.071 A 
ATOM     25  O   UNL     1      15.768  15.050  16.566  1.00  0.00    -0.458 OA
ATOM     26  C   UNL     1      18.473  15.454  16.261  1.00  0.00     0.200 A 
ATOM     27  C   UNL     1      16.593  14.511  17.455  1.00  0.00     0.138 A 
ATOM     28  O   UNL     1      19.714  15.642  16.115  1.00  0.00    -0.288 OA
ATOM     29  C   UNL     1      17.990  14.690  17.335  1.00  0.00     0.068 A 
ATOM     30  C   UNL     1      16.073  13.753  18.510  1.00  0.00     0.051 A 
ATOM     31  C   UNL     1      18.845  14.101  18.284  1.00  0.00     0.055 A 
ATOM     32  C   UNL     1      16.931  13.169  19.445  1.00  0.00     0.043 A 
ATOM     33  C   UNL     1      18.314  13.342  19.334  1.00  0.00     0.124 A 
ATOM     34  F   UNL     1      19.143  12.771  20.242  1.00  0.00    -0.207 F 
BRANCH  24  35
ATOM     35  C   UNL     1      18.066  16.804  14.205  1.00  0.00    -0.008 A 
ATOM     36  C   UNL     1      17.993  18.206  14.232  1.00  0.00     0.009 A 
ATOM     37  C   UNL     1      18.622  16.157  13.089  1.00  0.00     0.048 A 
ATOM     38  C   UNL     1      18.480  18.953  13.154  1.00  0.00     0.004 A 
ATOM     39  C   UNL     1      19.111  16.907  12.015  1.00  0.00     0.123 A 
ATOM     40  C   UNL     1      19.041  18.304  12.049  1.00  0.00     0.039 A 
ATOM     41  F   UNL     1      19.657  16.282  10.941  1.00  0.00    -0.207 F 
ENDBRANCH  24  35
ENDBRANCH  21  23
ENDBRANCH   3  21
BRANCH   6  42
ATOM     42  N   UNL     1      11.149  12.412  11.998  1.00  0.00    -0.383 N 
ATOM     43  H   UNL     1      10.258  12.676  12.472  1.00  0.00     0.158 HD
ATOM     44  H   UNL     1      11.285  11.409  11.750  1.00  0.00     0.158 HD
ENDBRANCH   6  42
TORSDOF 7
ENDMDL
MODEL 8
REMARK VINA RESULT:    -8.990      3.764      8.237
REMARK INTER + INTRA:         -14.525
REMARK INTER:                 -13.130
REMARK INTRA:                  -1.395
REMARK UNBOUND:                -2.119
REMARK SMILES CC(C)Oc1ccc(-c2nn([C@@H](C)c3oc4ccc(F)cc4c(=O)c3-c3cccc(F)c3)c3ncnc(N)c23)cc1F
REMARK SMILES IDX 9 1 10 2 11 3 33 4 39 5 37 6 36 7 35 8 34 9 8 10 5 11 41 12
REMARK SMILES IDX 6 13 42 14 40 15 7 16 4 17 2 18 1 19 3 20 12 21 13 22 14 23
REMARK SMILES IDX 25 24 15 25 23 26 16 27 24 28 22 29 17 30 21 31 18 32 19 33
REMARK SMILES IDX 20 34 26 35 27 36 32 37 28 38 30 39 29 40 31 41 38 42
REMARK H PARENT 38 43 38 44
REMARK Flexibility Score: inf
ROOT
ATOM      1  C   UNL     1      16.119  12.546  18.326  1.00  0.00     0.106 A 
ATOM      2  N   UNL     1      15.622  11.970  17.202  1.00  0.00    -0.169 NA
ATOM      3  N   UNL     1      14.594  11.202  17.548  1.00  0.00    -0.236 N 
ATOM      4  C   UNL     1      14.437  11.284  18.881  1.00  0.00     0.164 A 
ATOM      5  C   UNL     1      15.357  12.133  19.416  1.00  0.00     0.089 A 
ATOM      6  C   UNL     1      15.315  12.420  20.785  1.00  0.00     0.138 A 
ATOM      7  N   UNL     1      14.381  11.768  21.538  1.00  0.00    -0.219 NA
ATOM      8  C   UNL     1      13.494  10.886  20.980  1.00  0.00     0.226 A 
ATOM      9  N   UNL     1      13.506  10.652  19.636  1.00  0.00    -0.217 NA
ENDROOT
BRANCH   1  10
ATOM     10  C   UNL     1      17.328  13.386  18.327  1.00  0.00     0.006 A 
ATOM     11  C   UNL     1      19.651  14.981  18.309  1.00  0.00     0.155 A 
ATOM     12  C   UNL     1      18.398  15.547  18.033  1.00  0.00     0.165 A 
ATOM     13  C   UNL     1      19.726  13.612  18.642  1.00  0.00     0.050 A 
ATOM     14  F   UNL     1      18.298  16.867  17.732  1.00  0.00    -0.203 F 
ATOM     15  C   UNL     1      17.242  14.760  18.050  1.00  0.00     0.053 A 
ATOM     16  C   UNL     1      18.571  12.826  18.655  1.00  0.00     0.014 A 
BRANCH  11  17
ATOM     17  O   UNL     1      20.782  15.811  18.240  1.00  0.00    -0.488 OA
BRANCH  17  18
ATOM     18  C   UNL     1      21.888  15.648  17.348  1.00  0.00     0.167 C 
ATOM     19  C   UNL     1      22.842  16.826  17.534  1.00  0.00     0.052 C 
ATOM     20  C   UNL     1      21.400  15.588  15.896  1.00  0.00     0.052 C 
ENDBRANCH  17  18
ENDBRANCH  11  17
ENDBRANCH   1  10
BRANCH   3  21
ATOM     21  C   UNL     1      13.787  10.439  16.590  1.00  0.00     0.174 C 
ATOM     22  C   UNL     1      14.167   8.955  16.632  1.00  0.00     0.042 C 
BRANCH  21  23
ATOM     23  C   UNL     1      12.312  10.665  16.865  1.00  0.00     0.140 A 
ATOM     24  C   UNL     1      11.594  11.711  16.240  1.00  0.00     0.071 A 
ATOM     25  O   UNL     1      11.706   9.894  17.767  1.00  0.00    -0.458 OA
ATOM     26  C   UNL     1      10.250  11.913  16.593  1.00  0.00     0.200 A 
ATOM     27  C   UNL     1      10.437  10.051  18.125  1.00  0.00     0.138 A 
ATOM     28  O   UNL     1       9.586  12.841  16.051  1.00  0.00    -0.288 OA
ATOM     29  C   UNL     1       9.653  11.076  17.550  1.00  0.00     0.068 A 
ATOM     30  C   UNL     1       9.880   9.199  19.086  1.00  0.00     0.051 A 
ATOM     31  C   UNL     1       8.314  11.229  17.953  1.00  0.00     0.055 A 
ATOM     32  C   UNL     1       8.550   9.362  19.482  1.00  0.00     0.043 A 
ATOM     33  C   UNL     1       7.768  10.374  18.917  1.00  0.00     0.124 A 
ATOM     34  F   UNL     1       6.478  10.528  19.306  1.00  0.00    -0.207 F 
BRANCH  24  35
ATOM     35  C   UNL     1      12.232  12.592  15.243  1.00  0.00    -0.008 A 
ATOM     36  C   UNL     1      12.849  13.788  15.644  1.00  0.00     0.009 A 
ATOM     37  C   UNL     1      12.228  12.232  13.886  1.00  0.00     0.048 A 
ATOM     38  C   UNL     1      13.463  14.612  14.694  1.00  0.00     0.004 A 
ATOM     39  C   UNL     1      12.846  13.056  12.939  1.00  0.00     0.123 A 
ATOM     40  C   UNL     1      13.464  14.244  13.344  1.00  0.00     0.039 A 
ATOM     41  F   UNL     1      12.850  12.703  11.629  1.00  0.00    -0.207 F 
ENDBRANCH  24  35
ENDBRANCH  21  23
ENDBRANCH   3  21
BRANCH   6  42
ATOM     42  N   UNL     1      16.134  13.422  21.392  1.00  0.00    -0.383 N 
ATOM     43  H   UNL     1      16.994  13.141  21.909  1.00  0.00     0.158 HD
ATOM     44  H   UNL     1      15.803  14.404  21.503  1.00  0.00     0.158 HD
ENDBRANCH   6  42
TORSDOF 7
ENDMDL
MODEL 9
REMARK VINA RESULT:    -8.936      3.277      8.417
REMARK INTER + INTRA:         -14.450
REMARK INTER:                 -13.353
REMARK INTRA:                  -1.098
REMARK UNBOUND:                -2.119
REMARK SMILES CC(C)Oc1ccc(-c2nn([C@@H](C)c3oc4ccc(F)cc4c(=O)c3-c3cccc(F)c3)c3ncnc(N)c23)cc1F
REMARK SMILES IDX 9 1 10 2 11 3 33 4 39 5 37 6 36 7 35 8 34 9 8 10 5 11 41 12
REMARK SMILES IDX 6 13 42 14 40 15 7 16 4 17 2 18 1 19 3 20 12 21 13 22 14 23
REMARK SMILES IDX 25 24 15 25 23 26 16 27 24 28 22 29 17 30 21 31 18 32 19 33
REMARK SMILES IDX 20 34 26 35 27 36 32 37 28 38 30 39 29 40 31 41 38 42
REMARK H PARENT 38 43 38 44
REMARK Flexibility Score: inf
ROOT
ATOM      1  C   UNL     1      14.463  11.576  18.252  1.00  0.00     0.106 A 
ATOM      2  N   UNL     1      13.960  12.002  17.065  1.00  0.00    -0.169 NA
ATOM      3  N   UNL     1      13.046  11.126  16.661  1.00  0.00    -0.236 N 
ATOM      4  C   UNL     1      12.967  10.147  17.579  1.00  0.00     0.164 A 
ATOM      5  C   UNL     1      13.822  10.393  18.610  1.00  0.00     0.089 A 
ATOM      6  C   UNL     1      13.837   9.530  19.712  1.00  0.00     0.138 A 
ATOM      7  N   UNL     1      13.031   8.429  19.663  1.00  0.00    -0.219 NA
ATOM      8  C   UNL     1      12.211   8.184  18.593  1.00  0.00     0.226 A 
ATOM      9  N   UNL     1      12.161   9.058  17.547  1.00  0.00    -0.217 NA
ENDROOT
BRANCH   1  10
ATOM     10  C   UNL     1      15.570  12.257  18.943  1.00  0.00     0.006 A 
ATOM     11  C   UNL     1      17.689  13.542  20.283  1.00  0.00     0.155 A 
ATOM     12  C   UNL     1      17.906  12.916  19.047  1.00  0.00     0.165 A 
ATOM     13  C   UNL     1      16.385  13.562  20.823  1.00  0.00     0.050 A 
ATOM     14  F   UNL     1      19.147  12.904  18.498  1.00  0.00    -0.203 F 
ATOM     15  C   UNL     1      16.854  12.285  18.376  1.00  0.00     0.053 A 
ATOM     16  C   UNL     1      15.336  12.927  20.152  1.00  0.00     0.014 A 
BRANCH  11  17
ATOM     17  O   UNL     1      18.789  14.127  20.931  1.00  0.00    -0.488 OA
BRANCH  17  18
ATOM     18  C   UNL     1      19.546  13.540  21.993  1.00  0.00     0.167 C 
ATOM     19  C   UNL     1      19.971  14.646  22.957  1.00  0.00     0.052 C 
ATOM     20  C   UNL     1      20.780  12.820  21.437  1.00  0.00     0.052 C 
ENDBRANCH  17  18
ENDBRANCH  11  17
ENDBRANCH   1  10
BRANCH   3  21
ATOM     21  C   UNL     1      12.267  11.270  15.427  1.00  0.00     0.174 C 
ATOM     22  C   UNL     1      11.716   9.911  14.980  1.00  0.00     0.042 C 
BRANCH  21  23
ATOM     23  C   UNL     1      11.171  12.299  15.627  1.00  0.00     0.140 A 
ATOM     24  C   UNL     1      10.894  13.285  14.651  1.00  0.00     0.071 A 
ATOM     25  O   UNL     1      10.504  12.306  16.781  1.00  0.00    -0.458 OA
ATOM     26  C   UNL     1       9.916  14.254  14.929  1.00  0.00     0.200 A 
ATOM     27  C   UNL     1       9.572  13.202  17.079  1.00  0.00     0.138 A 
ATOM     28  O   UNL     1       9.650  15.147  14.075  1.00  0.00    -0.288 OA
ATOM     29  C   UNL     1       9.240  14.222  16.159  1.00  0.00     0.068 A 
ATOM     30  C   UNL     1       8.923  13.139  18.317  1.00  0.00     0.051 A 
ATOM     31  C   UNL     1       8.255  15.167  16.501  1.00  0.00     0.055 A 
ATOM     32  C   UNL     1       7.949  14.084  18.649  1.00  0.00     0.043 A 
ATOM     33  C   UNL     1       7.615  15.096  17.744  1.00  0.00     0.124 A 
ATOM     34  F   UNL     1       6.671  16.012  18.072  1.00  0.00    -0.207 F 
BRANCH  24  35
ATOM     35  C   UNL     1      11.617  13.318  13.365  1.00  0.00    -0.008 A 
ATOM     36  C   UNL     1      10.994  12.868  12.190  1.00  0.00     0.009 A 
ATOM     37  C   UNL     1      12.933  13.805  13.314  1.00  0.00     0.048 A 
ATOM     38  C   UNL     1      11.682  12.914  10.972  1.00  0.00     0.004 A 
ATOM     39  C   UNL     1      13.616  13.853  12.094  1.00  0.00     0.123 A 
ATOM     40  C   UNL     1      12.990  13.409  10.925  1.00  0.00     0.039 A 
ATOM     41  F   UNL     1      14.885  14.332  12.044  1.00  0.00    -0.207 F 
ENDBRANCH  24  35
ENDBRANCH  21  23
ENDBRANCH   3  21
BRANCH   6  42
ATOM     42  N   UNL     1      14.579   9.807  20.902  1.00  0.00    -0.383 N 
ATOM     43  H   UNL     1      15.614   9.920  20.849  1.00  0.00     0.158 HD
ATOM     44  H   UNL     1      14.151   9.709  21.848  1.00  0.00     0.158 HD
ENDBRANCH   6  42
TORSDOF 7
ENDMDL
MODEL 10
REMARK VINA RESULT:    -8.913      5.434      8.887
REMARK INTER + INTRA:         -14.419
REMARK INTER:                 -12.240
REMARK INTRA:                  -2.179
REMARK UNBOUND:                -2.119
REMARK SMILES CC(C)Oc1ccc(-c2nn([C@@H](C)c3oc4ccc(F)cc4c(=O)c3-c3cccc(F)c3)c3ncnc(N)c23)cc1F
REMARK SMILES IDX 9 1 10 2 11 3 33 4 39 5 37 6 36 7 35 8 34 9 8 10 5 11 41 12
REMARK SMILES IDX 6 13 42 14 40 15 7 16 4 17 2 18 1 19 3 20 12 21 13 22 14 23
REMARK SMILES IDX 25 24 15 25 23 26 16 27 24 28 22 29 17 30 21 31 18 32 19 33
REMARK SMILES IDX 20 34 26 35 27 36 32 37 28 38 30 39 29 40 31 41 38 42
REMARK H PARENT 38 43 38 44
REMARK Flexibility Score: inf
ROOT
ATOM      1  C   UNL     1      17.025  15.460  16.189  1.00  0.00     0.106 A 
ATOM      2  N   UNL     1      15.668  15.506  16.186  1.00  0.00    -0.169 NA
ATOM      3  N   UNL     1      15.218  14.615  17.063  1.00  0.00    -0.236 N 
ATOM      4  C   UNL     1      16.278  14.001  17.620  1.00  0.00     0.164 A 
ATOM      5  C   UNL     1      17.438  14.511  17.121  1.00  0.00     0.089 A 
ATOM      6  C   UNL     1      18.662  14.062  17.629  1.00  0.00     0.138 A 
ATOM      7  N   UNL     1      18.630  13.069  18.566  1.00  0.00    -0.219 NA
ATOM      8  C   UNL     1      17.449  12.544  19.020  1.00  0.00     0.226 A 
ATOM      9  N   UNL     1      16.258  13.025  18.559  1.00  0.00    -0.217 NA
ENDROOT
BRANCH   1  10
ATOM     10  C   UNL     1      17.854  16.248  15.263  1.00  0.00     0.006 A 
ATOM     11  C   UNL     1      19.461  17.752  13.505  1.00  0.00     0.155 A 
ATOM     12  C   UNL     1      18.964  16.500  13.117  1.00  0.00     0.165 A 
ATOM     13  C   UNL     1      19.106  18.270  14.768  1.00  0.00     0.050 A 
ATOM     14  F   UNL     1      19.275  15.992  11.897  1.00  0.00    -0.203 F 
ATOM     15  C   UNL     1      18.159  15.755  13.984  1.00  0.00     0.053 A 
ATOM     16  C   UNL     1      18.304  17.522  15.635  1.00  0.00     0.014 A 
BRANCH  11  17
ATOM     17  O   UNL     1      20.297  18.440  12.609  1.00  0.00    -0.488 OA
BRANCH  17  18
ATOM     18  C   UNL     1      21.653  18.105  12.302  1.00  0.00     0.167 C 
ATOM     19  C   UNL     1      22.573  18.936  13.195  1.00  0.00     0.052 C 
ATOM     20  C   UNL     1      21.953  18.388  10.826  1.00  0.00     0.052 C 
ENDBRANCH  17  18
ENDBRANCH  11  17
ENDBRANCH   1  10
BRANCH   3  21
ATOM     21  C   UNL     1      13.798  14.400  17.353  1.00  0.00     0.174 C 
ATOM     22  C   UNL     1      13.152  15.695  17.859  1.00  0.00     0.042 C 
BRANCH  21  23
ATOM     23  C   UNL     1      13.098  13.850  16.125  1.00  0.00     0.140 A 
ATOM     24  C   UNL     1      12.841  12.467  15.976  1.00  0.00     0.071 A 
ATOM     25  O   UNL     1      12.782  14.690  15.140  1.00  0.00    -0.458 OA
ATOM     26  C   UNL     1      12.256  12.013  14.783  1.00  0.00     0.200 A 
ATOM     27  C   UNL     1      12.227  14.300  13.999  1.00  0.00     0.138 A 
ATOM     28  O   UNL     1      12.017  10.782  14.624  1.00  0.00    -0.288 OA
ATOM     29  C   UNL     1      11.942  12.935  13.772  1.00  0.00     0.068 A 
ATOM     30  C   UNL     1      11.933  15.250  13.014  1.00  0.00     0.051 A 
ATOM     31  C   UNL     1      11.362  12.544  12.551  1.00  0.00     0.055 A 
ATOM     32  C   UNL     1      11.360  14.851  11.803  1.00  0.00     0.043 A 
ATOM     33  C   UNL     1      11.075  13.502  11.571  1.00  0.00     0.124 A 
ATOM     34  F   UNL     1      10.522  13.121  10.394  1.00  0.00    -0.207 F 
BRANCH  24  35
ATOM     35  C   UNL     1      13.184  11.503  17.040  1.00  0.00    -0.008 A 
ATOM     36  C   UNL     1      14.351  10.728  16.945  1.00  0.00     0.009 A 
ATOM     37  C   UNL     1      12.343  11.363  18.156  1.00  0.00     0.048 A 
ATOM     38  C   UNL     1      14.676   9.825  17.964  1.00  0.00     0.004 A 
ATOM     39  C   UNL     1      12.673  10.462  19.174  1.00  0.00     0.123 A 
ATOM     40  C   UNL     1      13.839   9.695  19.078  1.00  0.00     0.039 A 
ATOM     41  F   UNL     1      11.865  10.333  20.257  1.00  0.00    -0.207 F 
ENDBRANCH  24  35
ENDBRANCH  21  23
ENDBRANCH   3  21
BRANCH   6  42
ATOM     42  N   UNL     1      19.912  14.662  17.281  1.00  0.00    -0.383 N 
ATOM     43  H   UNL     1      20.768  14.421  17.825  1.00  0.00     0.158 HD
ATOM     44  H   UNL     1      19.966  15.474  16.630  1.00  0.00     0.158 HD
ENDBRANCH   6  42
TORSDOF 7
ENDMDL
MODEL 11
REMARK VINA RESULT:    -8.907      5.070      7.542
REMARK INTER + INTRA:         -14.412
REMARK INTER:                 -12.883
REMARK INTRA:                  -1.528
REMARK UNBOUND:                -2.119
REMARK SMILES CC(C)Oc1ccc(-c2nn([C@@H](C)c3oc4ccc(F)cc4c(=O)c3-c3cccc(F)c3)c3ncnc(N)c23)cc1F
REMARK SMILES IDX 9 1 10 2 11 3 33 4 39 5 37 6 36 7 35 8 34 9 8 10 5 11 41 12
REMARK SMILES IDX 6 13 42 14 40 15 7 16 4 17 2 18 1 19 3 20 12 21 13 22 14 23
REMARK SMILES IDX 25 24 15 25 23 26 16 27 24 28 22 29 17 30 21 31 18 32 19 33
REMARK SMILES IDX 20 34 26 35 27 36 32 37 28 38 30 39 29 40 31 41 38 42
REMARK H PARENT 38 43 38 44
REMARK Flexibility Score: inf
ROOT
ATOM      1  C   UNL     1      14.606  15.756  13.714  1.00  0.00     0.106 A 
ATOM      2  N   UNL     1      14.037  15.165  14.795  1.00  0.00    -0.169 NA
ATOM      3  N   UNL     1      14.853  15.320  15.833  1.00  0.00    -0.236 N 
ATOM      4  C   UNL     1      15.937  16.001  15.417  1.00  0.00     0.164 A 
ATOM      5  C   UNL     1      15.821  16.317  14.098  1.00  0.00     0.089 A 
ATOM      6  C   UNL     1      16.811  17.096  13.488  1.00  0.00     0.138 A 
ATOM      7  N   UNL     1      17.894  17.445  14.243  1.00  0.00    -0.219 NA
ATOM      8  C   UNL     1      18.004  17.077  15.558  1.00  0.00     0.226 A 
ATOM      9  N   UNL     1      17.010  16.363  16.161  1.00  0.00    -0.217 NA
ENDROOT
BRANCH   1  10
ATOM     10  C   UNL     1      14.019  15.691  12.365  1.00  0.00     0.006 A 
ATOM     11  C   UNL     1      12.916  15.577   9.775  1.00  0.00     0.155 A 
ATOM     12  C   UNL     1      13.258  14.399  10.455  1.00  0.00     0.165 A 
ATOM     13  C   UNL     1      13.087  16.817  10.425  1.00  0.00     0.050 A 
ATOM     14  F   UNL     1      13.081  13.193   9.857  1.00  0.00    -0.203 F 
ATOM     15  C   UNL     1      13.797  14.452  11.743  1.00  0.00     0.053 A 
ATOM     16  C   UNL     1      13.630  16.869  11.713  1.00  0.00     0.014 A 
BRANCH  11  17
ATOM     17  O   UNL     1      12.414  15.466   8.468  1.00  0.00    -0.488 OA
BRANCH  17  18
ATOM     18  C   UNL     1      13.152  15.694   7.265  1.00  0.00     0.167 C 
ATOM     19  C   UNL     1      12.335  15.170   6.086  1.00  0.00     0.052 C 
ATOM     20  C   UNL     1      14.508  14.981   7.326  1.00  0.00     0.052 C 
ENDBRANCH  17  18
ENDBRANCH  11  17
ENDBRANCH   1  10
BRANCH   3  21
ATOM     21  C   UNL     1      14.557  14.834  17.184  1.00  0.00     0.174 C 
ATOM     22  C   UNL     1      13.421  15.652  17.810  1.00  0.00     0.042 C 
BRANCH  21  23
ATOM     23  C   UNL     1      14.244  13.351  17.141  1.00  0.00     0.140 A 
ATOM     24  C   UNL     1      14.980  12.416  17.906  1.00  0.00     0.071 A 
ATOM     25  O   UNL     1      13.293  12.923  16.311  1.00  0.00    -0.458 OA
ATOM     26  C   UNL     1      14.689  11.049  17.766  1.00  0.00     0.200 A 
ATOM     27  C   UNL     1      12.987  11.641  16.152  1.00  0.00     0.138 A 
ATOM     28  O   UNL     1      15.332  10.194  18.436  1.00  0.00    -0.288 OA
ATOM     29  C   UNL     1      13.680  10.645  16.877  1.00  0.00     0.068 A 
ATOM     30  C   UNL     1      11.978  11.278  15.254  1.00  0.00     0.051 A 
ATOM     31  C   UNL     1      13.344   9.293  16.685  1.00  0.00     0.055 A 
ATOM     32  C   UNL     1      11.654   9.931  15.068  1.00  0.00     0.043 A 
ATOM     33  C   UNL     1      12.335   8.940  15.781  1.00  0.00     0.124 A 
ATOM     34  F   UNL     1      12.019   7.635  15.595  1.00  0.00    -0.207 F 
BRANCH  24  35
ATOM     35  C   UNL     1      16.047  12.850  18.830  1.00  0.00    -0.008 A 
ATOM     36  C   UNL     1      15.731  13.261  20.134  1.00  0.00     0.009 A 
ATOM     37  C   UNL     1      17.385  12.846  18.405  1.00  0.00     0.048 A 
ATOM     38  C   UNL     1      16.749  13.659  21.008  1.00  0.00     0.004 A 
ATOM     39  C   UNL     1      18.400  13.241  19.283  1.00  0.00     0.123 A 
ATOM     40  C   UNL     1      18.082  13.645  20.584  1.00  0.00     0.039 A 
ATOM     41  F   UNL     1      19.695  13.229  18.875  1.00  0.00    -0.207 F 
ENDBRANCH  24  35
ENDBRANCH  21  23
ENDBRANCH   3  21
BRANCH   6  42
ATOM     42  N   UNL     1      16.683  17.610  12.160  1.00  0.00    -0.383 N 
ATOM     43  H   UNL     1      16.182  18.510  12.002  1.00  0.00     0.158 HD
ATOM     44  H   UNL     1      16.901  17.025  11.325  1.00  0.00     0.158 HD
ENDBRANCH   6  42
TORSDOF 7
ENDMDL
MODEL 12
REMARK VINA RESULT:    -8.814      4.714      8.449
REMARK INTER + INTRA:         -14.282
REMARK INTER:                 -12.995
REMARK INTRA:                  -1.287
REMARK UNBOUND:                -2.119
REMARK SMILES CC(C)Oc1ccc(-c2nn([C@@H](C)c3oc4ccc(F)cc4c(=O)c3-c3cccc(F)c3)c3ncnc(N)c23)cc1F
REMARK SMILES IDX 9 1 10 2 11 3 33 4 39 5 37 6 36 7 35 8 34 9 8 10 5 11 41 12
REMARK SMILES IDX 6 13 42 14 40 15 7 16 4 17 2 18 1 19 3 20 12 21 13 22 14 23
REMARK SMILES IDX 25 24 15 25 23 26 16 27 24 28 22 29 17 30 21 31 18 32 19 33
REMARK SMILES IDX 20 34 26 35 27 36 32 37 28 38 30 39 29 40 31 41 38 42
REMARK H PARENT 38 43 38 44
REMARK Flexibility Score: inf
ROOT
ATOM      1  C   UNL     1       7.495  16.086  16.854  1.00  0.00     0.106 A 
ATOM      2  N   UNL     1       7.886  14.822  16.548  1.00  0.00    -0.169 NA
ATOM      3  N   UNL     1       9.214  14.786  16.549  1.00  0.00    -0.236 N 
ATOM      4  C   UNL     1       9.669  16.016  16.849  1.00  0.00     0.164 A 
ATOM      5  C   UNL     1       8.628  16.865  17.071  1.00  0.00     0.089 A 
ATOM      6  C   UNL     1       8.887  18.180  17.475  1.00  0.00     0.138 A 
ATOM      7  N   UNL     1      10.193  18.568  17.559  1.00  0.00    -0.219 NA
ATOM      8  C   UNL     1      11.221  17.704  17.289  1.00  0.00     0.226 A 
ATOM      9  N   UNL     1      10.962  16.408  16.948  1.00  0.00    -0.217 NA
ENDROOT
BRANCH   1  10
ATOM     10  C   UNL     1       6.085  16.511  16.846  1.00  0.00     0.006 A 
ATOM     11  C   UNL     1       3.382  17.301  16.825  1.00  0.00     0.155 A 
ATOM     12  C   UNL     1       4.126  17.347  18.013  1.00  0.00     0.165 A 
ATOM     13  C   UNL     1       4.018  16.901  15.632  1.00  0.00     0.050 A 
ATOM     14  F   UNL     1       3.540  17.751  19.169  1.00  0.00    -0.203 F 
ATOM     15  C   UNL     1       5.471  16.964  18.024  1.00  0.00     0.053 A 
ATOM     16  C   UNL     1       5.361  16.514  15.645  1.00  0.00     0.014 A 
BRANCH  11  17
ATOM     17  O   UNL     1       2.025  17.662  16.880  1.00  0.00    -0.488 OA
BRANCH  17  18
ATOM     18  C   UNL     1       1.232  18.112  15.778  1.00  0.00     0.167 C 
ATOM     19  C   UNL     1       0.083  18.960  16.320  1.00  0.00     0.052 C 
ATOM     20  C   UNL     1       0.682  16.917  14.991  1.00  0.00     0.052 C 
ENDBRANCH  17  18
ENDBRANCH  11  17
ENDBRANCH   1  10
BRANCH   3  21
ATOM     21  C   UNL     1       9.998  13.574  16.287  1.00  0.00     0.174 C 
ATOM     22  C   UNL     1       9.230  12.330  16.749  1.00  0.00     0.042 C 
BRANCH  21  23
ATOM     23  C   UNL     1      10.371  13.509  14.818  1.00  0.00     0.140 A 
ATOM     24  C   UNL     1      11.600  12.953  14.391  1.00  0.00     0.071 A 
ATOM     25  O   UNL     1       9.544  14.050  13.925  1.00  0.00    -0.458 OA
ATOM     26  C   UNL     1      11.918  12.990  13.023  1.00  0.00     0.200 A 
ATOM     27  C   UNL     1       9.808  14.101  12.625  1.00  0.00     0.138 A 
ATOM     28  O   UNL     1      13.009  12.501  12.615  1.00  0.00    -0.288 OA
ATOM     29  C   UNL     1      11.015  13.572  12.119  1.00  0.00     0.068 A 
ATOM     30  C   UNL     1       8.885  14.693  11.756  1.00  0.00     0.051 A 
ATOM     31  C   UNL     1      11.278  13.646  10.739  1.00  0.00     0.055 A 
ATOM     32  C   UNL     1       9.155  14.766  10.387  1.00  0.00     0.043 A 
ATOM     33  C   UNL     1      10.349  14.244   9.878  1.00  0.00     0.124 A 
ATOM     34  F   UNL     1      10.607  14.318   8.550  1.00  0.00    -0.207 F 
BRANCH  24  35
ATOM     35  C   UNL     1      12.547  12.353  15.351  1.00  0.00    -0.008 A 
ATOM     36  C   UNL     1      13.239  13.163  16.265  1.00  0.00     0.009 A 
ATOM     37  C   UNL     1      12.754  10.964  15.354  1.00  0.00     0.048 A 
ATOM     38  C   UNL     1      14.126  12.585  17.180  1.00  0.00     0.004 A 
ATOM     39  C   UNL     1      13.639  10.390  16.273  1.00  0.00     0.123 A 
ATOM     40  C   UNL     1      14.322  11.200  17.186  1.00  0.00     0.039 A 
ATOM     41  F   UNL     1      13.833   9.046  16.282  1.00  0.00    -0.207 F 
ENDBRANCH  24  35
ENDBRANCH  21  23
ENDBRANCH   3  21
BRANCH   6  42
ATOM     42  N   UNL     1       7.856  19.080  17.887  1.00  0.00    -0.383 N 
ATOM     43  H   UNL     1       7.599  19.884  17.274  1.00  0.00     0.158 HD
ATOM     44  H   UNL     1       7.486  19.078  18.862  1.00  0.00     0.158 HD
ENDBRANCH   6  42
TORSDOF 7
ENDMDL
MODEL 13
REMARK VINA RESULT:    -8.763      3.865      8.614
REMARK INTER + INTRA:         -14.213
REMARK INTER:                 -12.347
REMARK INTRA:                  -1.866
REMARK UNBOUND:                -2.119
REMARK SMILES CC(C)Oc1ccc(-c2nn([C@@H](C)c3oc4ccc(F)cc4c(=O)c3-c3cccc(F)c3)c3ncnc(N)c23)cc1F
REMARK SMILES IDX 9 1 10 2 11 3 33 4 39 5 37 6 36 7 35 8 34 9 8 10 5 11 41 12
REMARK SMILES IDX 6 13 42 14 40 15 7 16 4 17 2 18 1 19 3 20 12 21 13 22 14 23
REMARK SMILES IDX 25 24 15 25 23 26 16 27 24 28 22 29 17 30 21 31 18 32 19 33
REMARK SMILES IDX 20 34 26 35 27 36 32 37 28 38 30 39 29 40 31 41 38 42
REMARK H PARENT 38 43 38 44
REMARK Flexibility Score: inf
ROOT
ATOM      1  C   UNL     1      14.944  14.613  17.421  1.00  0.00     0.106 A 
ATOM      2  N   UNL     1      14.115  13.997  16.540  1.00  0.00    -0.169 NA
ATOM      3  N   UNL     1      12.892  14.493  16.700  1.00  0.00    -0.236 N 
ATOM      4  C   UNL     1      12.938  15.417  17.677  1.00  0.00     0.164 A 
ATOM      5  C   UNL     1      14.209  15.546  18.149  1.00  0.00     0.089 A 
ATOM      6  C   UNL     1      14.488  16.515  19.119  1.00  0.00     0.138 A 
ATOM      7  N   UNL     1      13.440  17.245  19.601  1.00  0.00    -0.219 NA
ATOM      8  C   UNL     1      12.163  17.065  19.139  1.00  0.00     0.226 A 
ATOM      9  N   UNL     1      11.908  16.156  18.154  1.00  0.00    -0.217 NA
ENDROOT
BRANCH   1  10
ATOM     10  C   UNL     1      16.357  14.237  17.586  1.00  0.00     0.006 A 
ATOM     11  C   UNL     1      19.059  13.498  17.889  1.00  0.00     0.155 A 
ATOM     12  C   UNL     1      18.716  14.678  17.213  1.00  0.00     0.165 A 
ATOM     13  C   UNL     1      18.035  12.712  18.458  1.00  0.00     0.050 A 
ATOM     14  F   UNL     1      19.686  15.462  16.677  1.00  0.00    -0.203 F 
ATOM     15  C   UNL     1      17.377  15.052  17.068  1.00  0.00     0.053 A 
ATOM     16  C   UNL     1      16.696  13.085  18.310  1.00  0.00     0.014 A 
BRANCH  11  17
ATOM     17  O   UNL     1      20.418  13.152  17.971  1.00  0.00    -0.488 OA
BRANCH  17  18
ATOM     18  C   UNL     1      20.939  11.912  18.455  1.00  0.00     0.167 C 
ATOM     19  C   UNL     1      21.678  12.173  19.766  1.00  0.00     0.052 C 
ATOM     20  C   UNL     1      21.892  11.293  17.425  1.00  0.00     0.052 C 
ENDBRANCH  17  18
ENDBRANCH  11  17
ENDBRANCH   1  10
BRANCH   3  21
ATOM     21  C   UNL     1      11.734  14.085  15.900  1.00  0.00     0.174 C 
ATOM     22  C   UNL     1      12.029  14.257  14.405  1.00  0.00     0.042 C 
BRANCH  21  23
ATOM     23  C   UNL     1      11.341  12.663  16.250  1.00  0.00     0.140 A 
ATOM     24  C   UNL     1      10.095  12.365  16.850  1.00  0.00     0.071 A 
ATOM     25  O   UNL     1      12.224  11.686  16.043  1.00  0.00    -0.458 OA
ATOM     26  C   UNL     1       9.822  11.037  17.217  1.00  0.00     0.200 A 
ATOM     27  C   UNL     1      12.002  10.421  16.373  1.00  0.00     0.138 A 
ATOM     28  O   UNL     1       8.717  10.745  17.756  1.00  0.00    -0.288 OA
ATOM     29  C   UNL     1      10.784  10.042  16.980  1.00  0.00     0.068 A 
ATOM     30  C   UNL     1      12.988   9.459  16.124  1.00  0.00     0.051 A 
ATOM     31  C   UNL     1      10.575   8.696  17.330  1.00  0.00     0.055 A 
ATOM     32  C   UNL     1      12.773   8.124  16.479  1.00  0.00     0.043 A 
ATOM     33  C   UNL     1      11.570   7.743  17.080  1.00  0.00     0.124 A 
ATOM     34  F   UNL     1      11.367   6.447  17.424  1.00  0.00    -0.207 F 
BRANCH  24  35
ATOM     35  C   UNL     1       9.093  13.419  17.105  1.00  0.00    -0.008 A 
ATOM     36  C   UNL     1       8.993  14.010  18.375  1.00  0.00     0.009 A 
ATOM     37  C   UNL     1       8.240  13.838  16.072  1.00  0.00     0.048 A 
ATOM     38  C   UNL     1       8.050  15.018  18.605  1.00  0.00     0.004 A 
ATOM     39  C   UNL     1       7.300  14.848  16.305  1.00  0.00     0.123 A 
ATOM     40  C   UNL     1       7.207  15.438  17.570  1.00  0.00     0.039 A 
ATOM     41  F   UNL     1       6.481  15.259  15.304  1.00  0.00    -0.207 F 
ENDBRANCH  24  35
ENDBRANCH  21  23
ENDBRANCH   3  21
BRANCH   6  42
ATOM     42  N   UNL     1      15.818  16.826  19.543  1.00  0.00    -0.383 N 
ATOM     43  H   UNL     1      15.977  17.626  20.192  1.00  0.00     0.158 HD
ATOM     44  H   UNL     1      16.651  16.408  19.078  1.00  0.00     0.158 HD
ENDBRANCH   6  42
TORSDOF 7
ENDMDL
MODEL 14
REMARK VINA RESULT:    -8.761      3.380      7.813
REMARK INTER + INTRA:         -14.210
REMARK INTER:                 -12.550
REMARK INTRA:                  -1.659
REMARK UNBOUND:                -2.119
REMARK SMILES CC(C)Oc1ccc(-c2nn([C@@H](C)c3oc4ccc(F)cc4c(=O)c3-c3cccc(F)c3)c3ncnc(N)c23)cc1F
REMARK SMILES IDX 9 1 10 2 11 3 33 4 39 5 37 6 36 7 35 8 34 9 8 10 5 11 41 12
REMARK SMILES IDX 6 13 42 14 40 15 7 16 4 17 2 18 1 19 3 20 12 21 13 22 14 23
REMARK SMILES IDX 25 24 15 25 23 26 16 27 24 28 22 29 17 30 21 31 18 32 19 33
REMARK SMILES IDX 20 34 26 35 27 36 32 37 28 38 30 39 29 40 31 41 38 42
REMARK H PARENT 38 43 38 44
REMARK Flexibility Score: inf
ROOT
ATOM      1  C   UNL     1      13.465  13.022  19.078  1.00  0.00     0.106 A 
ATOM      2  N   UNL     1      12.392  12.970  18.247  1.00  0.00    -0.169 NA
ATOM      3  N   UNL     1      11.545  12.061  18.718  1.00  0.00    -0.236 N 
ATOM      4  C   UNL     1      12.073  11.533  19.837  1.00  0.00     0.164 A 
ATOM      5  C   UNL     1      13.269  12.119  20.119  1.00  0.00     0.089 A 
ATOM      6  C   UNL     1      13.949  11.766  21.290  1.00  0.00     0.138 A 
ATOM      7  N   UNL     1      13.401  10.786  22.067  1.00  0.00    -0.219 NA
ATOM      8  C   UNL     1      12.216  10.183  21.737  1.00  0.00     0.226 A 
ATOM      9  N   UNL     1      11.531  10.571  20.622  1.00  0.00    -0.217 NA
ENDROOT
BRANCH   1  10
ATOM     10  C   UNL     1      14.647  13.855  18.805  1.00  0.00     0.006 A 
ATOM     11  C   UNL     1      16.916  15.450  18.308  1.00  0.00     0.155 A 
ATOM     12  C   UNL     1      16.866  14.124  17.854  1.00  0.00     0.165 A 
ATOM     13  C   UNL     1      15.795  15.990  18.974  1.00  0.00     0.050 A 
ATOM     14  F   UNL     1      17.924  13.591  17.192  1.00  0.00    -0.203 F 
ATOM     15  C   UNL     1      15.738  13.333  18.092  1.00  0.00     0.053 A 
ATOM     16  C   UNL     1      14.670  15.196  19.214  1.00  0.00     0.014 A 
BRANCH  11  17
ATOM     17  O   UNL     1      18.089  16.186  18.075  1.00  0.00    -0.488 OA
BRANCH  17  18
ATOM     18  C   UNL     1      18.409  16.896  16.875  1.00  0.00     0.167 C 
ATOM     19  C   UNL     1      17.171  16.923  15.981  1.00  0.00     0.052 C 
ATOM     20  C   UNL     1      19.573  16.216  16.145  1.00  0.00     0.052 C 
ENDBRANCH  17  18
ENDBRANCH  11  17
ENDBRANCH   1  10
BRANCH   3  21
ATOM     21  C   UNL     1      10.255  11.748  18.096  1.00  0.00     0.174 C 
ATOM     22  C   UNL     1       9.105  12.334  18.922  1.00  0.00     0.042 C 
BRANCH  21  23
ATOM     23  C   UNL     1      10.242  12.239  16.661  1.00  0.00     0.140 A 
ATOM     24  C   UNL     1      11.074  11.662  15.673  1.00  0.00     0.071 A 
ATOM     25  O   UNL     1       9.473  13.282  16.350  1.00  0.00    -0.458 OA
ATOM     26  C   UNL     1      11.069  12.212  14.380  1.00  0.00     0.200 A 
ATOM     27  C   UNL     1       9.438  13.827  15.140  1.00  0.00     0.138 A 
ATOM     28  O   UNL     1      11.804  11.716  13.480  1.00  0.00    -0.288 OA
ATOM     29  C   UNL     1      10.243  13.312  14.100  1.00  0.00     0.068 A 
ATOM     30  C   UNL     1       8.605  14.925  14.901  1.00  0.00     0.051 A 
ATOM     31  C   UNL     1      10.197  13.912  12.828  1.00  0.00     0.055 A 
ATOM     32  C   UNL     1       8.568  15.517  13.636  1.00  0.00     0.043 A 
ATOM     33  C   UNL     1       9.362  15.013  12.601  1.00  0.00     0.124 A 
ATOM     34  F   UNL     1       9.324  15.592  11.376  1.00  0.00    -0.207 F 
BRANCH  24  35
ATOM     35  C   UNL     1      11.948  10.513  15.980  1.00  0.00    -0.008 A 
ATOM     36  C   UNL     1      13.323  10.703  16.189  1.00  0.00     0.009 A 
ATOM     37  C   UNL     1      11.401   9.222  16.068  1.00  0.00     0.048 A 
ATOM     38  C   UNL     1      14.142   9.609  16.492  1.00  0.00     0.004 A 
ATOM     39  C   UNL     1      12.222   8.132  16.375  1.00  0.00     0.123 A 
ATOM     40  C   UNL     1      13.591   8.326  16.588  1.00  0.00     0.039 A 
ATOM     41  F   UNL     1      11.692   6.886  16.470  1.00  0.00    -0.207 F 
ENDBRANCH  24  35
ENDBRANCH  21  23
ENDBRANCH   3  21
BRANCH   6  42
ATOM     42  N   UNL     1      15.121  12.449  21.741  1.00  0.00    -0.383 N 
ATOM     43  H   UNL     1      15.728  12.940  21.051  1.00  0.00     0.158 HD
ATOM     44  H   UNL     1      15.496  12.314  22.704  1.00  0.00     0.158 HD
ENDBRANCH   6  42
TORSDOF 7
ENDMDL
MODEL 15
REMARK VINA RESULT:    -8.576      4.560      8.653
REMARK INTER + INTRA:         -13.954
REMARK INTER:                 -11.625
REMARK INTRA:                  -2.329
REMARK UNBOUND:                -2.119
REMARK SMILES CC(C)Oc1ccc(-c2nn([C@@H](C)c3oc4ccc(F)cc4c(=O)c3-c3cccc(F)c3)c3ncnc(N)c23)cc1F
REMARK SMILES IDX 9 1 10 2 11 3 33 4 39 5 37 6 36 7 35 8 34 9 8 10 5 11 41 12
REMARK SMILES IDX 6 13 42 14 40 15 7 16 4 17 2 18 1 19 3 20 12 21 13 22 14 23
REMARK SMILES IDX 25 24 15 25 23 26 16 27 24 28 22 29 17 30 21 31 18 32 19 33
REMARK SMILES IDX 20 34 26 35 27 36 32 37 28 38 30 39 29 40 31 41 38 42
REMARK H PARENT 38 43 38 44
REMARK Flexibility Score: inf
ROOT
ATOM      1  C   UNL     1      13.610  15.801  14.548  1.00  0.00     0.106 A 
ATOM      2  N   UNL     1      12.873  14.699  14.257  1.00  0.00    -0.169 NA
ATOM      3  N   UNL     1      11.598  15.062  14.165  1.00  0.00    -0.236 N 
ATOM      4  C   UNL     1      11.519  16.385  14.397  1.00  0.00     0.164 A 
ATOM      5  C   UNL     1      12.759  16.901  14.623  1.00  0.00     0.089 A 
ATOM      6  C   UNL     1      12.907  18.280  14.810  1.00  0.00     0.138 A 
ATOM      7  N   UNL     1      11.772  19.040  14.826  1.00  0.00    -0.219 NA
ATOM      8  C   UNL     1      10.533  18.487  14.638  1.00  0.00     0.226 A 
ATOM      9  N   UNL     1      10.401  17.150  14.403  1.00  0.00    -0.217 NA
ENDROOT
BRANCH   1  10
ATOM     10  C   UNL     1      15.055  15.748  14.819  1.00  0.00     0.006 A 
ATOM     11  C   UNL     1      17.821  15.622  15.343  1.00  0.00     0.155 A 
ATOM     12  C   UNL     1      17.354  15.914  14.053  1.00  0.00     0.165 A 
ATOM     13  C   UNL     1      16.887  15.440  16.385  1.00  0.00     0.050 A 
ATOM     14  F   UNL     1      18.235  16.114  13.040  1.00  0.00    -0.203 F 
ATOM     15  C   UNL     1      15.983  15.985  13.792  1.00  0.00     0.053 A 
ATOM     16  C   UNL     1      15.516  15.508  16.122  1.00  0.00     0.014 A 
BRANCH  11  17
ATOM     17  O   UNL     1      19.208  15.525  15.540  1.00  0.00    -0.488 OA
BRANCH  17  18
ATOM     18  C   UNL     1      20.117  16.622  15.659  1.00  0.00     0.167 C 
ATOM     19  C   UNL     1      21.251  16.427  14.655  1.00  0.00     0.052 C 
ATOM     20  C   UNL     1      20.679  16.699  17.083  1.00  0.00     0.052 C 
ENDBRANCH  17  18
ENDBRANCH  11  17
ENDBRANCH   1  10
BRANCH   3  21
ATOM     21  C   UNL     1      10.508  14.139  13.834  1.00  0.00     0.174 C 
ATOM     22  C   UNL     1      10.608  13.694  12.370  1.00  0.00     0.042 C 
BRANCH  21  23
ATOM     23  C   UNL     1      10.517  12.966  14.795  1.00  0.00     0.140 A 
ATOM     24  C   UNL     1       9.780  12.992  16.002  1.00  0.00     0.071 A 
ATOM     25  O   UNL     1      11.291  11.918  14.516  1.00  0.00    -0.458 OA
ATOM     26  C   UNL     1       9.889  11.903  16.884  1.00  0.00     0.200 A 
ATOM     27  C   UNL     1      11.419  10.871  15.321  1.00  0.00     0.138 A 
ATOM     28  O   UNL     1       9.242  11.902  17.969  1.00  0.00    -0.288 OA
ATOM     29  C   UNL     1      10.719  10.822  16.548  1.00  0.00     0.068 A 
ATOM     30  C   UNL     1      12.259   9.814  14.953  1.00  0.00     0.051 A 
ATOM     31  C   UNL     1      10.877   9.706  17.389  1.00  0.00     0.055 A 
ATOM     32  C   UNL     1      12.413   8.711  15.797  1.00  0.00     0.043 A 
ATOM     33  C   UNL     1      11.724   8.656  17.013  1.00  0.00     0.124 A 
ATOM     34  F   UNL     1      11.878   7.585  17.829  1.00  0.00    -0.207 F 
BRANCH  24  35
ATOM     35  C   UNL     1       8.918  14.137  16.352  1.00  0.00    -0.008 A 
ATOM     36  C   UNL     1       9.393  15.150  17.199  1.00  0.00     0.009 A 
ATOM     37  C   UNL     1       7.616  14.219  15.831  1.00  0.00     0.048 A 
ATOM     38  C   UNL     1       8.574  16.240  17.515  1.00  0.00     0.004 A 
ATOM     39  C   UNL     1       6.801  15.311  16.147  1.00  0.00     0.123 A 
ATOM     40  C   UNL     1       7.281  16.321  16.987  1.00  0.00     0.039 A 
ATOM     41  F   UNL     1       5.546  15.394  15.636  1.00  0.00    -0.207 F 
ENDBRANCH  24  35
ENDBRANCH  21  23
ENDBRANCH   3  21
BRANCH   6  42
ATOM     42  N   UNL     1      14.183  18.919  14.885  1.00  0.00    -0.383 N 
ATOM     43  H   UNL     1      14.242  19.919  15.173  1.00  0.00     0.158 HD
ATOM     44  H   UNL     1      15.038  18.482  14.478  1.00  0.00     0.158 HD
ENDBRANCH   6  42
TORSDOF 7
ENDMDL
