MODEL 1
REMARK VINA RESULT:    -8.547      0.000      0.000
REMARK INTER + INTRA:         -11.166
REMARK INTER:                 -11.045
REMARK INTRA:                  -0.121
REMARK UNBOUND:                -0.121
REMARK SMILES CC(=O)OCC(=O)[C@@]1(O)[C@H](C)C[C@H]2[C@@H]3CCC4=CC(=O)C=C[C@]4(C)[C@@]3(F)[C@@H](O)C[C@@]21C
REMARK SMILES IDX 5 1 6 2 7 3 8 4 13 5 12 6 30 7 14 8 10 9 31 10 29 11 25 12
REMARK SMILES IDX 15 13 11 14 27 15 26 16 23 17 16 18 17 19 22 20 24 21 18 22
REMARK SMILES IDX 21 23 19 24 20 25 9 26 28 28 4 30 2 31 1 32 3 33
REMARK H PARENT 9 27 28 29
REMARK Flexibility Score: inf
ROOT
ATOM      1  C   UNL     1      17.506  79.720  -5.966  1.00  0.00     0.311 C 
ENDROOT
BRANCH   1   2
ATOM      2  C   UNL     1      16.315  80.209  -5.175  1.00  0.00     0.202 C 
ATOM      3  O   UNL     1      16.465  81.200  -4.476  1.00  0.00    -0.293 OA
BRANCH   2   4
ATOM      4  C   UNL     1      14.926  79.549  -5.208  1.00  0.00     0.134 C 
ATOM      5  C   UNL     1      13.140  78.475  -4.034  1.00  0.00     0.005 C 
ATOM      6  C   UNL     1      13.803  77.341  -4.808  1.00  0.00     0.011 C 
ATOM      7  C   UNL     1      14.284  79.477  -3.782  1.00  0.00     0.010 C 
ATOM      8  C   UNL     1      12.324  78.156  -2.755  1.00  0.00     0.035 C 
ATOM      9  C   UNL     1      14.888  78.039  -5.669  1.00  0.00     0.026 C 
ATOM     10  C   UNL     1      15.353  78.959  -2.754  1.00  0.00     0.015 C 
ATOM     11  C   UNL     1      13.663  80.803  -3.259  1.00  0.00     0.045 C 
ATOM     12  C   UNL     1      11.672  79.482  -2.230  1.00  0.00     0.152 C 
ATOM     13  C   UNL     1      11.291  77.002  -2.956  1.00  0.00     0.012 C 
ATOM     14  C   UNL     1      14.613  77.840  -7.170  1.00  0.00     0.011 C 
ATOM     15  C   UNL     1      12.751  80.602  -2.013  1.00  0.00     0.154 C 
ATOM     16  F   UNL     1      10.848  79.979  -3.236  1.00  0.00    -0.239 F 
ATOM     17  C   UNL     1      10.733  79.175  -0.997  1.00  0.00     0.044 C 
ATOM     18  C   UNL     1       9.815  77.343  -2.676  1.00  0.00     0.032 C 
ATOM     19  C   UNL     1       9.585  78.302  -1.529  1.00  0.00    -0.053 C 
ATOM     20  C   UNL     1      10.212  80.468  -0.369  1.00  0.00    -0.009 C 
ATOM     21  C   UNL     1      11.418  78.383   0.145  1.00  0.00     0.024 C 
ATOM     22  C   UNL     1       8.333  78.433  -1.061  1.00  0.00     0.052 C 
ATOM     23  C   UNL     1       8.965  80.585   0.095  1.00  0.00     0.048 C 
ATOM     24  C   UNL     1       7.985  79.528  -0.154  1.00  0.00     0.178 C 
ATOM     25  O   UNL     1       6.837  79.592   0.359  1.00  0.00    -0.290 OA
BRANCH   4  26
ATOM     26  O   UNL     1      14.086  80.322  -6.044  1.00  0.00    -0.381 OA
ATOM     27  H   UNL     1      14.348  80.163  -6.989  1.00  0.00     0.212 HD
ENDBRANCH   4  26
BRANCH  15  28
ATOM     28  O   UNL     1      13.521  80.360  -0.866  1.00  0.00    -0.390 OA
ATOM     29  H   UNL     1      12.903  80.391  -0.089  1.00  0.00     0.211 HD
ENDBRANCH  15  28
ENDBRANCH   2   4
ENDBRANCH   1   2
BRANCH   1  30
ATOM     30  O   UNL     1      17.397  80.097  -7.336  1.00  0.00    -0.458 OA
BRANCH  30  31
ATOM     31  C   UNL     1      17.497  81.421  -7.777  1.00  0.00     0.303 C 
ATOM     32  C   UNL     1      18.821  82.106  -7.753  1.00  0.00     0.139 C 
ATOM     33  O   UNL     1      16.489  82.032  -8.224  1.00  0.00    -0.253 OA
ENDBRANCH  30  31
ENDBRANCH   1  30
TORSDOF 6
ENDMDL
MODEL 2
REMARK VINA RESULT:    -7.218      3.838      8.465
REMARK INTER + INTRA:          -9.448
REMARK INTER:                  -9.073
REMARK INTRA:                  -0.375
REMARK UNBOUND:                -0.121
REMARK SMILES CC(=O)OCC(=O)[C@@]1(O)[C@H](C)C[C@H]2[C@@H]3CCC4=CC(=O)C=C[C@]4(C)[C@@]3(F)[C@@H](O)C[C@@]21C
REMARK SMILES IDX 5 1 6 2 7 3 8 4 13 5 12 6 30 7 14 8 10 9 31 10 29 11 25 12
REMARK SMILES IDX 15 13 11 14 27 15 26 16 23 17 16 18 17 19 22 20 24 21 18 22
REMARK SMILES IDX 21 23 19 24 20 25 9 26 28 28 4 30 2 31 1 32 3 33
REMARK H PARENT 9 27 28 29
REMARK Flexibility Score: inf
ROOT
ATOM      1  C   UNL     1       5.833  75.198   0.018  1.00  0.00     0.311 C 
ENDROOT
BRANCH   1   2
ATOM      2  C   UNL     1       6.527  74.828  -1.271  1.00  0.00     0.202 C 
ATOM      3  O   UNL     1       5.831  74.454  -2.204  1.00  0.00    -0.293 OA
BRANCH   2   4
ATOM      4  C   UNL     1       8.048  74.907  -1.487  1.00  0.00     0.134 C 
ATOM      5  C   UNL     1       9.949  76.155  -2.229  1.00  0.00     0.005 C 
ATOM      6  C   UNL     1       9.753  75.105  -3.317  1.00  0.00     0.011 C 
ATOM      7  C   UNL     1       8.532  76.386  -1.669  1.00  0.00     0.010 C 
ATOM      8  C   UNL     1      10.689  77.476  -2.563  1.00  0.00     0.035 C 
ATOM      9  C   UNL     1       8.599  74.211  -2.792  1.00  0.00     0.026 C 
ATOM     10  C   UNL     1       7.577  77.126  -2.672  1.00  0.00     0.015 C 
ATOM     11  C   UNL     1       8.654  77.216  -0.361  1.00  0.00     0.045 C 
ATOM     12  C   UNL     1      10.841  78.314  -1.246  1.00  0.00     0.152 C 
ATOM     13  C   UNL     1      12.043  77.252  -3.306  1.00  0.00     0.012 C 
ATOM     14  C   UNL     1       9.073  72.761  -2.587  1.00  0.00     0.011 C 
ATOM     15  C   UNL     1       9.452  78.541  -0.550  1.00  0.00     0.154 C 
ATOM     16  F   UNL     1      11.568  77.551  -0.336  1.00  0.00    -0.239 F 
ATOM     17  C   UNL     1      11.698  79.612  -1.524  1.00  0.00     0.044 C 
ATOM     18  C   UNL     1      13.304  77.817  -2.627  1.00  0.00     0.032 C 
ATOM     19  C   UNL     1      13.108  79.132  -1.903  1.00  0.00    -0.053 C 
ATOM     20  C   UNL     1      11.726  80.524  -0.296  1.00  0.00    -0.009 C 
ATOM     21  C   UNL     1      11.179  80.480  -2.697  1.00  0.00     0.024 C 
ATOM     22  C   UNL     1      14.203  79.810  -1.522  1.00  0.00     0.052 C 
ATOM     23  C   UNL     1      12.820  81.195   0.071  1.00  0.00     0.048 C 
ATOM     24  C   UNL     1      14.099  80.932  -0.587  1.00  0.00     0.178 C 
ATOM     25  O   UNL     1      15.113  81.625  -0.309  1.00  0.00    -0.290 OA
BRANCH   4  26
ATOM     26  O   UNL     1       8.688  74.359  -0.350  1.00  0.00    -0.381 OA
ATOM     27  H   UNL     1       9.646  74.621  -0.370  1.00  0.00     0.212 HD
ENDBRANCH   4  26
BRANCH  15  28
ATOM     28  O   UNL     1       8.682  79.492  -1.235  1.00  0.00    -0.390 OA
ATOM     29  H   UNL     1       7.737  79.191  -1.188  1.00  0.00     0.211 HD
ENDBRANCH  15  28
ENDBRANCH   2   4
ENDBRANCH   1   2
BRANCH   1  30
ATOM     30  O   UNL     1       5.404  76.556  -0.005  1.00  0.00    -0.458 OA
BRANCH  30  31
ATOM     31  C   UNL     1       5.737  77.483   0.989  1.00  0.00     0.303 C 
ATOM     32  C   UNL     1       5.628  78.941   0.700  1.00  0.00     0.139 C 
ATOM     33  O   UNL     1       6.098  77.102   2.135  1.00  0.00    -0.253 OA
ENDBRANCH  30  31
ENDBRANCH   1  30
TORSDOF 6
ENDMDL
MODEL 3
REMARK VINA RESULT:    -7.155      2.842      5.420
REMARK INTER + INTRA:          -9.367
REMARK INTER:                  -8.850
REMARK INTRA:                  -0.517
REMARK UNBOUND:                -0.121
REMARK SMILES CC(=O)OCC(=O)[C@@]1(O)[C@H](C)C[C@H]2[C@@H]3CCC4=CC(=O)C=C[C@]4(C)[C@@]3(F)[C@@H](O)C[C@@]21C
REMARK SMILES IDX 5 1 6 2 7 3 8 4 13 5 12 6 30 7 14 8 10 9 31 10 29 11 25 12
REMARK SMILES IDX 15 13 11 14 27 15 26 16 23 17 16 18 17 19 22 20 24 21 18 22
REMARK SMILES IDX 21 23 19 24 20 25 9 26 28 28 4 30 2 31 1 32 3 33
REMARK H PARENT 9 27 28 29
REMARK Flexibility Score: inf
ROOT
ATOM      1  C   UNL     1      14.826  79.827  -1.221  1.00  0.00     0.311 C 
ENDROOT
BRANCH   1   2
ATOM      2  C   UNL     1      13.727  80.807  -0.885  1.00  0.00     0.202 C 
ATOM      3  O   UNL     1      13.900  81.980  -1.181  1.00  0.00    -0.293 OA
BRANCH   2   4
ATOM      4  C   UNL     1      12.400  80.418  -0.209  1.00  0.00     0.134 C 
ATOM      5  C   UNL     1      10.179  79.553  -0.404  1.00  0.00     0.005 C 
ATOM      6  C   UNL     1       9.971  81.046  -0.169  1.00  0.00     0.011 C 
ATOM      7  C   UNL     1      11.544  79.470  -1.115  1.00  0.00     0.010 C 
ATOM      8  C   UNL     1       9.075  78.729  -1.115  1.00  0.00     0.035 C 
ATOM      9  C   UNL     1      11.398  81.603   0.080  1.00  0.00     0.026 C 
ATOM     10  C   UNL     1      11.519  80.033  -2.581  1.00  0.00     0.015 C 
ATOM     11  C   UNL     1      11.990  77.981  -1.138  1.00  0.00     0.045 C 
ATOM     12  C   UNL     1       9.503  77.220  -1.125  1.00  0.00     0.152 C 
ATOM     13  C   UNL     1       7.652  78.959  -0.517  1.00  0.00     0.012 C 
ATOM     14  C   UNL     1      11.516  82.205   1.491  1.00  0.00     0.011 C 
ATOM     15  C   UNL     1      10.925  77.033  -1.764  1.00  0.00     0.154 C 
ATOM     16  F   UNL     1       9.656  76.811   0.197  1.00  0.00    -0.239 F 
ATOM     17  C   UNL     1       8.347  76.332  -1.735  1.00  0.00     0.044 C 
ATOM     18  C   UNL     1       6.920  77.714   0.018  1.00  0.00     0.032 C 
ATOM     19  C   UNL     1       7.155  76.444  -0.770  1.00  0.00    -0.053 C 
ATOM     20  C   UNL     1       8.800  74.880  -1.902  1.00  0.00    -0.009 C 
ATOM     21  C   UNL     1       7.853  76.795  -3.128  1.00  0.00     0.024 C 
ATOM     22  C   UNL     1       6.351  75.395  -0.528  1.00  0.00     0.052 C 
ATOM     23  C   UNL     1       7.991  73.847  -1.660  1.00  0.00     0.048 C 
ATOM     24  C   UNL     1       6.685  74.065  -1.039  1.00  0.00     0.178 C 
ATOM     25  O   UNL     1       5.881  73.106  -0.893  1.00  0.00    -0.290 OA
BRANCH   4  26
ATOM     26  O   UNL     1      12.697  79.742   0.998  1.00  0.00    -0.381 OA
ATOM     27  H   UNL     1      13.393  80.258   1.485  1.00  0.00     0.212 HD
ENDBRANCH   4  26
BRANCH  15  28
ATOM     28  O   UNL     1      10.886  77.178  -3.158  1.00  0.00    -0.390 OA
ATOM     29  H   UNL     1       9.938  77.336  -3.408  1.00  0.00     0.211 HD
ENDBRANCH  15  28
ENDBRANCH   2   4
ENDBRANCH   1   2
BRANCH   1  30
ATOM     30  O   UNL     1      15.329  80.057  -2.534  1.00  0.00    -0.458 OA
BRANCH  30  31
ATOM     31  C   UNL     1      14.706  79.573  -3.690  1.00  0.00     0.303 C 
ATOM     32  C   UNL     1      14.561  80.466  -4.875  1.00  0.00     0.139 C 
ATOM     33  O   UNL     1      14.295  78.383  -3.754  1.00  0.00    -0.253 OA
ENDBRANCH  30  31
ENDBRANCH   1  30
TORSDOF 6
ENDMDL
MODEL 4
REMARK VINA RESULT:    -7.058      2.116      2.919
REMARK INTER + INTRA:          -9.241
REMARK INTER:                  -9.322
REMARK INTRA:                   0.080
REMARK UNBOUND:                -0.121
REMARK SMILES CC(=O)OCC(=O)[C@@]1(O)[C@H](C)C[C@H]2[C@@H]3CCC4=CC(=O)C=C[C@]4(C)[C@@]3(F)[C@@H](O)C[C@@]21C
REMARK SMILES IDX 5 1 6 2 7 3 8 4 13 5 12 6 30 7 14 8 10 9 31 10 29 11 25 12
REMARK SMILES IDX 15 13 11 14 27 15 26 16 23 17 16 18 17 19 22 20 24 21 18 22
REMARK SMILES IDX 21 23 19 24 20 25 9 26 28 28 4 30 2 31 1 32 3 33
REMARK H PARENT 9 27 28 29
REMARK Flexibility Score: inf
ROOT
ATOM      1  C   UNL     1      15.619  80.709  -3.982  1.00  0.00     0.311 C 
ENDROOT
BRANCH   1   2
ATOM      2  C   UNL     1      14.374  80.314  -3.224  1.00  0.00     0.202 C 
ATOM      3  O   UNL     1      14.181  80.836  -2.135  1.00  0.00    -0.293 OA
BRANCH   2   4
ATOM      4  C   UNL     1      13.329  79.311  -3.742  1.00  0.00     0.134 C 
ATOM      5  C   UNL     1      11.919  77.424  -3.327  1.00  0.00     0.005 C 
ATOM      6  C   UNL     1      13.033  76.863  -4.205  1.00  0.00     0.011 C 
ATOM      7  C   UNL     1      12.588  78.587  -2.568  1.00  0.00     0.010 C 
ATOM      8  C   UNL     1      11.124  76.472  -2.397  1.00  0.00     0.035 C 
ATOM      9  C   UNL     1      13.891  78.099  -4.583  1.00  0.00     0.026 C 
ATOM     10  C   UNL     1      13.640  78.113  -1.502  1.00  0.00     0.015 C 
ATOM     11  C   UNL     1      11.475  79.414  -1.866  1.00  0.00     0.045 C 
ATOM     12  C   UNL     1       9.982  77.290  -1.700  1.00  0.00     0.152 C 
ATOM     13  C   UNL     1      10.606  75.191  -3.123  1.00  0.00     0.012 C 
ATOM     14  C   UNL     1      13.889  78.326  -6.105  1.00  0.00     0.011 C 
ATOM     15  C   UNL     1      10.552  78.550  -0.956  1.00  0.00     0.154 C 
ATOM     16  F   UNL     1       9.162  77.813  -2.697  1.00  0.00    -0.239 F 
ATOM     17  C   UNL     1       9.074  76.327  -0.836  1.00  0.00     0.044 C 
ATOM     18  C   UNL     1       9.084  74.956  -3.103  1.00  0.00     0.032 C 
ATOM     19  C   UNL     1       8.388  75.370  -1.824  1.00  0.00    -0.053 C 
ATOM     20  C   UNL     1       8.051  77.121  -0.022  1.00  0.00    -0.009 C 
ATOM     21  C   UNL     1       9.854  75.455   0.179  1.00  0.00     0.024 C 
ATOM     22  C   UNL     1       7.126  74.953  -1.632  1.00  0.00     0.052 C 
ATOM     23  C   UNL     1       6.800  76.696   0.164  1.00  0.00     0.048 C 
ATOM     24  C   UNL     1       6.302  75.533  -0.570  1.00  0.00     0.178 C 
ATOM     25  O   UNL     1       5.155  75.073  -0.330  1.00  0.00    -0.290 OA
BRANCH   4  26
ATOM     26  O   UNL     1      12.375  80.020  -4.510  1.00  0.00    -0.381 OA
ATOM     27  H   UNL     1      12.505  79.789  -5.467  1.00  0.00     0.212 HD
ENDBRANCH   4  26
BRANCH  15  28
ATOM     28  O   UNL     1      11.213  78.193   0.228  1.00  0.00    -0.390 OA
ATOM     29  H   UNL     1      11.150  78.971   0.842  1.00  0.00     0.211 HD
ENDBRANCH  15  28
ENDBRANCH   2   4
ENDBRANCH   1   2
BRANCH   1  30
ATOM     30  O   UNL     1      15.288  81.267  -5.251  1.00  0.00    -0.458 OA
BRANCH  30  31
ATOM     31  C   UNL     1      16.148  81.226  -6.354  1.00  0.00     0.303 C 
ATOM     32  C   UNL     1      17.132  80.113  -6.477  1.00  0.00     0.139 C 
ATOM     33  O   UNL     1      16.079  82.099  -7.261  1.00  0.00    -0.253 OA
ENDBRANCH  30  31
ENDBRANCH   1  30
TORSDOF 6
ENDMDL
MODEL 5
REMARK VINA RESULT:    -6.445      2.796      4.708
REMARK INTER + INTRA:          -8.449
REMARK INTER:                  -8.382
REMARK INTRA:                  -0.067
REMARK UNBOUND:                -0.121
REMARK SMILES CC(=O)OCC(=O)[C@@]1(O)[C@H](C)C[C@H]2[C@@H]3CCC4=CC(=O)C=C[C@]4(C)[C@@]3(F)[C@@H](O)C[C@@]21C
REMARK SMILES IDX 5 1 6 2 7 3 8 4 13 5 12 6 30 7 14 8 10 9 31 10 29 11 25 12
REMARK SMILES IDX 15 13 11 14 27 15 26 16 23 17 16 18 17 19 22 20 24 21 18 22
REMARK SMILES IDX 21 23 19 24 20 25 9 26 28 28 4 30 2 31 1 32 3 33
REMARK H PARENT 9 27 28 29
REMARK Flexibility Score: inf
ROOT
ATOM      1  C   UNL     1      13.901  81.092  -1.542  1.00  0.00     0.311 C 
ENDROOT
BRANCH   1   2
ATOM      2  C   UNL     1      14.191  80.101  -2.644  1.00  0.00     0.202 C 
ATOM      3  O   UNL     1      15.346  80.001  -3.030  1.00  0.00    -0.293 OA
BRANCH   2   4
ATOM      4  C   UNL     1      13.128  79.200  -3.298  1.00  0.00     0.134 C 
ATOM      5  C   UNL     1      11.662  77.317  -3.142  1.00  0.00     0.005 C 
ATOM      6  C   UNL     1      12.775  76.839  -4.068  1.00  0.00     0.011 C 
ATOM      7  C   UNL     1      12.349  78.356  -2.234  1.00  0.00     0.010 C 
ATOM      8  C   UNL     1      10.826  76.280  -2.348  1.00  0.00     0.035 C 
ATOM      9  C   UNL     1      13.671  78.087  -4.277  1.00  0.00     0.026 C 
ATOM     10  C   UNL     1      13.369  77.724  -1.222  1.00  0.00     0.015 C 
ATOM     11  C   UNL     1      11.246  79.121  -1.449  1.00  0.00     0.045 C 
ATOM     12  C   UNL     1       9.695  77.036  -1.570  1.00  0.00     0.152 C 
ATOM     13  C   UNL     1      10.286  75.115  -3.236  1.00  0.00     0.012 C 
ATOM     14  C   UNL     1      13.701  78.503  -5.758  1.00  0.00     0.011 C 
ATOM     15  C   UNL     1      10.286  78.176  -0.666  1.00  0.00     0.154 C 
ATOM     16  F   UNL     1       8.906  77.702  -2.504  1.00  0.00    -0.239 F 
ATOM     17  C   UNL     1       8.747  75.999  -0.845  1.00  0.00     0.044 C 
ATOM     18  C   UNL     1       8.759  74.922  -3.266  1.00  0.00     0.032 C 
ATOM     19  C   UNL     1       8.053  75.193  -1.955  1.00  0.00    -0.053 C 
ATOM     20  C   UNL     1       7.733  76.714   0.049  1.00  0.00    -0.009 C 
ATOM     21  C   UNL     1       9.487  74.985   0.063  1.00  0.00     0.024 C 
ATOM     22  C   UNL     1       6.777  74.792  -1.833  1.00  0.00     0.052 C 
ATOM     23  C   UNL     1       6.468  76.304   0.163  1.00  0.00     0.048 C 
ATOM     24  C   UNL     1       5.951  75.257  -0.717  1.00  0.00     0.178 C 
ATOM     25  O   UNL     1       4.788  74.803  -0.553  1.00  0.00    -0.290 OA
BRANCH   4  26
ATOM     26  O   UNL     1      12.206  80.027  -3.983  1.00  0.00    -0.381 OA
ATOM     27  H   UNL     1      11.286  79.713  -3.776  1.00  0.00     0.212 HD
ENDBRANCH   4  26
BRANCH  15  28
ATOM     28  O   UNL     1      10.917  77.656   0.472  1.00  0.00    -0.390 OA
ATOM     29  H   UNL     1      10.790  76.671   0.452  1.00  0.00     0.211 HD
ENDBRANCH  15  28
ENDBRANCH   2   4
ENDBRANCH   1   2
BRANCH   1  30
ATOM     30  O   UNL     1      14.684  80.811  -0.385  1.00  0.00    -0.458 OA
BRANCH  30  31
ATOM     31  C   UNL     1      14.192  80.114   0.724  1.00  0.00     0.303 C 
ATOM     32  C   UNL     1      12.895  80.525   1.333  1.00  0.00     0.139 C 
ATOM     33  O   UNL     1      14.814  79.123   1.194  1.00  0.00    -0.253 OA
ENDBRANCH  30  31
ENDBRANCH   1  30
TORSDOF 6
ENDMDL
MODEL 6
REMARK VINA RESULT:    -6.352      2.606      8.226
REMARK INTER + INTRA:          -8.330
REMARK INTER:                  -7.773
REMARK INTRA:                  -0.557
REMARK UNBOUND:                -0.121
REMARK SMILES CC(=O)OCC(=O)[C@@]1(O)[C@H](C)C[C@H]2[C@@H]3CCC4=CC(=O)C=C[C@]4(C)[C@@]3(F)[C@@H](O)C[C@@]21C
REMARK SMILES IDX 5 1 6 2 7 3 8 4 13 5 12 6 30 7 14 8 10 9 31 10 29 11 25 12
REMARK SMILES IDX 15 13 11 14 27 15 26 16 23 17 16 18 17 19 22 20 24 21 18 22
REMARK SMILES IDX 21 23 19 24 20 25 9 26 28 28 4 30 2 31 1 32 3 33
REMARK H PARENT 9 27 28 29
REMARK Flexibility Score: inf
ROOT
ATOM      1  C   UNL     1       6.933  75.203  -1.973  1.00  0.00     0.311 C 
ENDROOT
BRANCH   1   2
ATOM      2  C   UNL     1       6.920  76.307  -0.944  1.00  0.00     0.202 C 
ATOM      3  O   UNL     1       6.303  76.110   0.094  1.00  0.00    -0.293 OA
BRANCH   2   4
ATOM      4  C   UNL     1       7.645  77.654  -1.111  1.00  0.00     0.134 C 
ATOM      5  C   UNL     1       9.678  78.910  -1.020  1.00  0.00     0.005 C 
ATOM      6  C   UNL     1       8.908  79.370   0.213  1.00  0.00     0.011 C 
ATOM      7  C   UNL     1       9.194  77.465  -1.249  1.00  0.00     0.010 C 
ATOM      8  C   UNL     1      11.223  79.043  -1.053  1.00  0.00     0.035 C 
ATOM      9  C   UNL     1       7.536  78.655   0.105  1.00  0.00     0.026 C 
ATOM     10  C   UNL     1       9.696  76.457  -0.155  1.00  0.00     0.015 C 
ATOM     11  C   UNL     1       9.690  77.002  -2.648  1.00  0.00     0.045 C 
ATOM     12  C   UNL     1      11.735  78.600  -2.467  1.00  0.00     0.152 C 
ATOM     13  C   UNL     1      11.729  80.458  -0.633  1.00  0.00     0.012 C 
ATOM     14  C   UNL     1       6.390  79.675  -0.013  1.00  0.00     0.011 C 
ATOM     15  C   UNL     1      11.229  77.159  -2.834  1.00  0.00     0.154 C 
ATOM     16  F   UNL     1      11.143  79.431  -3.415  1.00  0.00    -0.239 F 
ATOM     17  C   UNL     1      13.293  78.836  -2.579  1.00  0.00     0.044 C 
ATOM     18  C   UNL     1      12.583  81.218  -1.664  1.00  0.00     0.032 C 
ATOM     19  C   UNL     1      13.513  80.355  -2.488  1.00  0.00    -0.053 C 
ATOM     20  C   UNL     1      13.842  78.266  -3.888  1.00  0.00    -0.009 C 
ATOM     21  C   UNL     1      14.121  78.186  -1.442  1.00  0.00     0.024 C 
ATOM     22  C   UNL     1      14.467  80.967  -3.208  1.00  0.00     0.052 C 
ATOM     23  C   UNL     1      14.793  78.883  -4.592  1.00  0.00     0.048 C 
ATOM     24  C   UNL     1      15.216  80.235  -4.231  1.00  0.00     0.178 C 
ATOM     25  O   UNL     1      16.175  80.785  -4.835  1.00  0.00    -0.290 OA
BRANCH   4  26
ATOM     26  O   UNL     1       7.159  78.277  -2.285  1.00  0.00    -0.381 OA
ATOM     27  H   UNL     1       7.924  78.432  -2.900  1.00  0.00     0.212 HD
ENDBRANCH   4  26
BRANCH  15  28
ATOM     28  O   UNL     1      11.921  76.172  -2.117  1.00  0.00    -0.390 OA
ATOM     29  H   UNL     1      12.203  76.581  -1.257  1.00  0.00     0.211 HD
ENDBRANCH  15  28
ENDBRANCH   2   4
ENDBRANCH   1   2
BRANCH   1  30
ATOM     30  O   UNL     1       7.651  74.069  -1.496  1.00  0.00    -0.458 OA
BRANCH  30  31
ATOM     31  C   UNL     1       8.774  73.543  -2.145  1.00  0.00     0.303 C 
ATOM     32  C   UNL     1       8.869  73.625  -3.630  1.00  0.00     0.139 C 
ATOM     33  O   UNL     1       9.720  73.029  -1.489  1.00  0.00    -0.253 OA
ENDBRANCH  30  31
ENDBRANCH   1  30
TORSDOF 6
ENDMDL
MODEL 7
REMARK VINA RESULT:    -6.350      1.867      7.704
REMARK INTER + INTRA:          -8.327
REMARK INTER:                  -7.954
REMARK INTRA:                  -0.372
REMARK UNBOUND:                -0.121
REMARK SMILES CC(=O)OCC(=O)[C@@]1(O)[C@H](C)C[C@H]2[C@@H]3CCC4=CC(=O)C=C[C@]4(C)[C@@]3(F)[C@@H](O)C[C@@]21C
REMARK SMILES IDX 5 1 6 2 7 3 8 4 13 5 12 6 30 7 14 8 10 9 31 10 29 11 25 12
REMARK SMILES IDX 15 13 11 14 27 15 26 16 23 17 16 18 17 19 22 20 24 21 18 22
REMARK SMILES IDX 21 23 19 24 20 25 9 26 28 28 4 30 2 31 1 32 3 33
REMARK H PARENT 9 27 28 29
REMARK Flexibility Score: inf
ROOT
ATOM      1  C   UNL     1       9.555  79.302  -0.016  1.00  0.00     0.311 C 
ENDROOT
BRANCH   1   2
ATOM      2  C   UNL     1      11.058  79.387  -0.126  1.00  0.00     0.202 C 
ATOM      3  O   UNL     1      11.642  80.152   0.629  1.00  0.00    -0.293 OA
BRANCH   2   4
ATOM      4  C   UNL     1      11.900  78.561  -1.114  1.00  0.00     0.134 C 
ATOM      5  C   UNL     1      12.967  78.387  -3.247  1.00  0.00     0.005 C 
ATOM      6  C   UNL     1      11.753  77.471  -3.369  1.00  0.00     0.011 C 
ATOM      7  C   UNL     1      12.529  79.460  -2.232  1.00  0.00     0.010 C 
ATOM      8  C   UNL     1      13.605  78.988  -4.526  1.00  0.00     0.035 C 
ATOM      9  C   UNL     1      11.116  77.479  -1.955  1.00  0.00     0.026 C 
ATOM     10  C   UNL     1      11.435  80.439  -2.791  1.00  0.00     0.015 C 
ATOM     11  C   UNL     1      13.785  80.273  -1.811  1.00  0.00     0.045 C 
ATOM     12  C   UNL     1      14.888  79.792  -4.117  1.00  0.00     0.152 C 
ATOM     13  C   UNL     1      13.875  77.927  -5.639  1.00  0.00     0.012 C 
ATOM     14  C   UNL     1      11.124  76.068  -1.339  1.00  0.00     0.011 C 
ATOM     15  C   UNL     1      14.563  80.869  -3.022  1.00  0.00     0.154 C 
ATOM     16  F   UNL     1      15.764  78.909  -3.492  1.00  0.00    -0.239 F 
ATOM     17  C   UNL     1      15.632  80.320  -5.408  1.00  0.00     0.044 C 
ATOM     18  C   UNL     1      15.332  77.784  -6.116  1.00  0.00     0.032 C 
ATOM     19  C   UNL     1      16.118  79.076  -6.171  1.00  0.00    -0.053 C 
ATOM     20  C   UNL     1      16.795  81.239  -5.033  1.00  0.00    -0.009 C 
ATOM     21  C   UNL     1      14.735  81.129  -6.377  1.00  0.00     0.024 C 
ATOM     22  C   UNL     1      17.292  79.071  -6.823  1.00  0.00     0.052 C 
ATOM     23  C   UNL     1      17.957  81.226  -5.690  1.00  0.00     0.048 C 
ATOM     24  C   UNL     1      18.228  80.189  -6.685  1.00  0.00     0.178 C 
ATOM     25  O   UNL     1      19.282  80.225  -7.372  1.00  0.00    -0.290 OA
BRANCH   4  26
ATOM     26  O   UNL     1      12.946  77.938  -0.394  1.00  0.00    -0.381 OA
ATOM     27  H   UNL     1      13.758  77.920  -0.967  1.00  0.00     0.212 HD
ENDBRANCH   4  26
BRANCH  15  28
ATOM     28  O   UNL     1      13.876  81.965  -3.564  1.00  0.00    -0.390 OA
ATOM     29  H   UNL     1      14.180  82.772  -3.071  1.00  0.00     0.211 HD
ENDBRANCH  15  28
ENDBRANCH   2   4
ENDBRANCH   1   2
BRANCH   1  30
ATOM     30  O   UNL     1       8.927  80.276  -0.845  1.00  0.00    -0.458 OA
BRANCH  30  31
ATOM     31  C   UNL     1       8.087  79.946  -1.914  1.00  0.00     0.303 C 
ATOM     32  C   UNL     1       7.838  78.512  -2.238  1.00  0.00     0.139 C 
ATOM     33  O   UNL     1       7.513  80.844  -2.587  1.00  0.00    -0.253 OA
ENDBRANCH  30  31
ENDBRANCH   1  30
TORSDOF 6
ENDMDL
MODEL 8
REMARK VINA RESULT:    -6.230      2.054      8.237
REMARK INTER + INTRA:          -8.171
REMARK INTER:                  -7.491
REMARK INTRA:                  -0.680
REMARK UNBOUND:                -0.121
REMARK SMILES CC(=O)OCC(=O)[C@@]1(O)[C@H](C)C[C@H]2[C@@H]3CCC4=CC(=O)C=C[C@]4(C)[C@@]3(F)[C@@H](O)C[C@@]21C
REMARK SMILES IDX 5 1 6 2 7 3 8 4 13 5 12 6 30 7 14 8 10 9 31 10 29 11 25 12
REMARK SMILES IDX 15 13 11 14 27 15 26 16 23 17 16 18 17 19 22 20 24 21 18 22
REMARK SMILES IDX 21 23 19 24 20 25 9 26 28 28 4 30 2 31 1 32 3 33
REMARK H PARENT 9 27 28 29
REMARK Flexibility Score: inf
ROOT
ATOM      1  C   UNL     1      10.303  79.799  -2.259  1.00  0.00     0.311 C 
ENDROOT
BRANCH   1   2
ATOM      2  C   UNL     1      11.544  79.058  -1.820  1.00  0.00     0.202 C 
ATOM      3  O   UNL     1      11.409  77.911  -1.419  1.00  0.00    -0.293 OA
BRANCH   2   4
ATOM      4  C   UNL     1      12.964  79.649  -1.862  1.00  0.00     0.134 C 
ATOM      5  C   UNL     1      15.107  79.758  -2.919  1.00  0.00     0.005 C 
ATOM      6  C   UNL     1      15.369  78.971  -1.638  1.00  0.00     0.011 C 
ATOM      7  C   UNL     1      13.638  79.441  -3.260  1.00  0.00     0.010 C 
ATOM      8  C   UNL     1      16.059  79.589  -4.130  1.00  0.00     0.035 C 
ATOM      9  C   UNL     1      14.015  78.995  -0.882  1.00  0.00     0.026 C 
ATOM     10  C   UNL     1      13.412  77.960  -3.733  1.00  0.00     0.015 C 
ATOM     11  C   UNL     1      13.177  80.418  -4.378  1.00  0.00     0.045 C 
ATOM     12  C   UNL     1      15.619  80.587  -5.257  1.00  0.00     0.152 C 
ATOM     13  C   UNL     1      17.568  79.719  -3.751  1.00  0.00     0.012 C 
ATOM     14  C   UNL     1      14.152  79.712   0.473  1.00  0.00     0.011 C 
ATOM     15  C   UNL     1      14.106  80.398  -5.629  1.00  0.00     0.154 C 
ATOM     16  F   UNL     1      15.696  81.877  -4.739  1.00  0.00    -0.239 F 
ATOM     17  C   UNL     1      16.641  80.530  -6.462  1.00  0.00     0.044 C 
ATOM     18  C   UNL     1      18.368  80.818  -4.474  1.00  0.00     0.032 C 
ATOM     19  C   UNL     1      17.985  81.044  -5.920  1.00  0.00    -0.053 C 
ATOM     20  C   UNL     1      16.149  81.374  -7.639  1.00  0.00    -0.009 C 
ATOM     21  C   UNL     1      16.889  79.107  -7.022  1.00  0.00     0.024 C 
ATOM     22  C   UNL     1      18.806  81.786  -6.680  1.00  0.00     0.052 C 
ATOM     23  C   UNL     1      16.976  82.105  -8.389  1.00  0.00     0.048 C 
ATOM     24  C   UNL     1      18.374  82.275  -7.991  1.00  0.00     0.178 C 
ATOM     25  O   UNL     1      19.179  82.887  -8.741  1.00  0.00    -0.290 OA
BRANCH   4  26
ATOM     26  O   UNL     1      12.875  81.038  -1.606  1.00  0.00    -0.381 OA
ATOM     27  H   UNL     1      13.319  81.525  -2.349  1.00  0.00     0.212 HD
ENDBRANCH   4  26
BRANCH  15  28
ATOM     28  O   UNL     1      13.901  79.234  -6.383  1.00  0.00    -0.390 OA
ATOM     29  H   UNL     1      12.923  79.065  -6.399  1.00  0.00     0.211 HD
ENDBRANCH  15  28
ENDBRANCH   2   4
ENDBRANCH   1   2
BRANCH   1  30
ATOM     30  O   UNL     1       9.995  80.857  -1.355  1.00  0.00    -0.458 OA
BRANCH  30  31
ATOM     31  C   UNL     1       9.682  80.648  -0.007  1.00  0.00     0.303 C 
ATOM     32  C   UNL     1      10.536  81.260   1.049  1.00  0.00     0.139 C 
ATOM     33  O   UNL     1       8.668  79.975   0.325  1.00  0.00    -0.253 OA
ENDBRANCH  30  31
ENDBRANCH   1  30
TORSDOF 6
ENDMDL
MODEL 9
REMARK VINA RESULT:    -5.943      4.763      7.361
REMARK INTER + INTRA:          -7.801
REMARK INTER:                  -7.225
REMARK INTRA:                  -0.576
REMARK UNBOUND:                -0.121
REMARK SMILES CC(=O)OCC(=O)[C@@]1(O)[C@H](C)C[C@H]2[C@@H]3CCC4=CC(=O)C=C[C@]4(C)[C@@]3(F)[C@@H](O)C[C@@]21C
REMARK SMILES IDX 5 1 6 2 7 3 8 4 13 5 12 6 30 7 14 8 10 9 31 10 29 11 25 12
REMARK SMILES IDX 15 13 11 14 27 15 26 16 23 17 16 18 17 19 22 20 24 21 18 22
REMARK SMILES IDX 21 23 19 24 20 25 9 26 28 28 4 30 2 31 1 32 3 33
REMARK H PARENT 9 27 28 29
REMARK Flexibility Score: inf
ROOT
ATOM      1  C   UNL     1      10.999  80.567  -1.618  1.00  0.00     0.311 C 
ENDROOT
BRANCH   1   2
ATOM      2  C   UNL     1      11.453  79.640  -0.516  1.00  0.00     0.202 C 
ATOM      3  O   UNL     1      11.447  80.071   0.628  1.00  0.00    -0.293 OA
BRANCH   2   4
ATOM      4  C   UNL     1      11.905  78.186  -0.741  1.00  0.00     0.134 C 
ATOM      5  C   UNL     1      11.327  75.884  -1.036  1.00  0.00     0.005 C 
ATOM      6  C   UNL     1      11.894  75.942   0.379  1.00  0.00     0.011 C 
ATOM      7  C   UNL     1      10.732  77.288  -1.260  1.00  0.00     0.010 C 
ATOM      8  C   UNL     1      10.351  74.744  -1.425  1.00  0.00     0.035 C 
ATOM      9  C   UNL     1      12.384  77.404   0.543  1.00  0.00     0.026 C 
ATOM     10  C   UNL     1       9.445  77.565  -0.402  1.00  0.00     0.015 C 
ATOM     11  C   UNL     1      10.390  77.436  -2.769  1.00  0.00     0.045 C 
ATOM     12  C   UNL     1      10.017  74.868  -2.952  1.00  0.00     0.152 C 
ATOM     13  C   UNL     1      10.868  73.327  -1.023  1.00  0.00     0.012 C 
ATOM     14  C   UNL     1      13.903  77.452   0.786  1.00  0.00     0.011 C 
ATOM     15  C   UNL     1       9.471  76.298  -3.303  1.00  0.00     0.154 C 
ATOM     16  F   UNL     1      11.212  74.765  -3.660  1.00  0.00    -0.239 F 
ATOM     17  C   UNL     1       9.120  73.651  -3.412  1.00  0.00     0.044 C 
ATOM     18  C   UNL     1      11.029  72.304  -2.162  1.00  0.00     0.032 C 
ATOM     19  C   UNL     1       9.982  72.388  -3.252  1.00  0.00    -0.053 C 
ATOM     20  C   UNL     1       8.650  73.832  -4.856  1.00  0.00    -0.009 C 
ATOM     21  C   UNL     1       7.842  73.443  -2.562  1.00  0.00     0.024 C 
ATOM     22  C   UNL     1       9.901  71.371  -4.126  1.00  0.00     0.052 C 
ATOM     23  C   UNL     1       8.570  72.812  -5.714  1.00  0.00     0.048 C 
ATOM     24  C   UNL     1       9.116  71.504  -5.355  1.00  0.00     0.178 C 
ATOM     25  O   UNL     1       8.962  70.518  -6.122  1.00  0.00    -0.290 OA
BRANCH   4  26
ATOM     26  O   UNL     1      12.936  78.187  -1.710  1.00  0.00    -0.381 OA
ATOM     27  H   UNL     1      13.490  79.001  -1.582  1.00  0.00     0.212 HD
ENDBRANCH   4  26
BRANCH  15  28
ATOM     28  O   UNL     1       8.154  76.470  -2.856  1.00  0.00    -0.390 OA
ATOM     29  H   UNL     1       8.204  76.887  -1.956  1.00  0.00     0.211 HD
ENDBRANCH  15  28
ENDBRANCH   2   4
ENDBRANCH   1   2
BRANCH   1  30
ATOM     30  O   UNL     1       9.675  81.035  -1.379  1.00  0.00    -0.458 OA
BRANCH  30  31
ATOM     31  C   UNL     1       8.633  80.895  -2.304  1.00  0.00     0.303 C 
ATOM     32  C   UNL     1       7.502  79.973  -2.002  1.00  0.00     0.139 C 
ATOM     33  O   UNL     1       8.624  81.562  -3.373  1.00  0.00    -0.253 OA
ENDBRANCH  30  31
ENDBRANCH   1  30
TORSDOF 6
ENDMDL
MODEL 10
REMARK VINA RESULT:    -5.652      4.161      6.226
REMARK INTER + INTRA:          -7.425
REMARK INTER:                  -7.802
REMARK INTRA:                   0.377
REMARK UNBOUND:                -0.121
REMARK SMILES CC(=O)OCC(=O)[C@@]1(O)[C@H](C)C[C@H]2[C@@H]3CCC4=CC(=O)C=C[C@]4(C)[C@@]3(F)[C@@H](O)C[C@@]21C
REMARK SMILES IDX 5 1 6 2 7 3 8 4 13 5 12 6 30 7 14 8 10 9 31 10 29 11 25 12
REMARK SMILES IDX 15 13 11 14 27 15 26 16 23 17 16 18 17 19 22 20 24 21 18 22
REMARK SMILES IDX 21 23 19 24 20 25 9 26 28 28 4 30 2 31 1 32 3 33
REMARK H PARENT 9 27 28 29
REMARK Flexibility Score: inf
ROOT
ATOM      1  C   UNL     1      14.929  80.074  -0.513  1.00  0.00     0.311 C 
ENDROOT
BRANCH   1   2
ATOM      2  C   UNL     1      13.639  80.809  -0.786  1.00  0.00     0.202 C 
ATOM      3  O   UNL     1      13.670  81.737  -1.581  1.00  0.00    -0.293 OA
BRANCH   2   4
ATOM      4  C   UNL     1      12.288  80.451  -0.142  1.00  0.00     0.134 C 
ATOM      5  C   UNL     1      10.066  79.599  -0.381  1.00  0.00     0.005 C 
ATOM      6  C   UNL     1       9.865  81.100  -0.199  1.00  0.00     0.011 C 
ATOM      7  C   UNL     1      11.452  79.483  -1.046  1.00  0.00     0.010 C 
ATOM      8  C   UNL     1       8.978  78.762  -1.102  1.00  0.00     0.035 C 
ATOM      9  C   UNL     1      11.287  81.653   0.078  1.00  0.00     0.026 C 
ATOM     10  C   UNL     1      11.479  80.001  -2.528  1.00  0.00     0.015 C 
ATOM     11  C   UNL     1      11.886  77.991  -1.009  1.00  0.00     0.045 C 
ATOM     12  C   UNL     1       9.393  77.250  -1.052  1.00  0.00     0.152 C 
ATOM     13  C   UNL     1       7.539  79.021  -0.558  1.00  0.00     0.012 C 
ATOM     14  C   UNL     1      11.366  82.298   1.473  1.00  0.00     0.011 C 
ATOM     15  C   UNL     1      10.833  77.032  -1.639  1.00  0.00     0.154 C 
ATOM     16  F   UNL     1       9.500  76.881   0.286  1.00  0.00    -0.239 F 
ATOM     17  C   UNL     1       8.249  76.353  -1.671  1.00  0.00     0.044 C 
ATOM     18  C   UNL     1       6.779  77.800  -0.008  1.00  0.00     0.032 C 
ATOM     19  C   UNL     1       7.027  76.504  -0.750  1.00  0.00    -0.053 C 
ATOM     20  C   UNL     1       8.694  74.894  -1.780  1.00  0.00    -0.009 C 
ATOM     21  C   UNL     1       7.803  76.777  -3.093  1.00  0.00     0.024 C 
ATOM     22  C   UNL     1       6.207  75.470  -0.501  1.00  0.00     0.052 C 
ATOM     23  C   UNL     1       7.868  73.874  -1.533  1.00  0.00     0.048 C 
ATOM     24  C   UNL     1       6.545  74.122  -0.961  1.00  0.00     0.178 C 
ATOM     25  O   UNL     1       5.729  73.174  -0.811  1.00  0.00    -0.290 OA
BRANCH   4  26
ATOM     26  O   UNL     1      12.540  79.811   1.094  1.00  0.00    -0.381 OA
ATOM     27  H   UNL     1      12.090  80.326   1.814  1.00  0.00     0.212 HD
ENDBRANCH   4  26
BRANCH  15  28
ATOM     28  O   UNL     1      10.839  77.134  -3.038  1.00  0.00    -0.390 OA
ATOM     29  H   UNL     1      11.744  76.864  -3.345  1.00  0.00     0.211 HD
ENDBRANCH  15  28
ENDBRANCH   2   4
ENDBRANCH   1   2
BRANCH   1  30
ATOM     30  O   UNL     1      14.702  78.673  -0.386  1.00  0.00    -0.458 OA
BRANCH  30  31
ATOM     31  C   UNL     1      14.685  78.007   0.844  1.00  0.00     0.303 C 
ATOM     32  C   UNL     1      14.277  76.574   0.898  1.00  0.00     0.139 C 
ATOM     33  O   UNL     1      15.041  78.593   1.903  1.00  0.00    -0.253 OA
ENDBRANCH  30  31
ENDBRANCH   1  30
TORSDOF 6
ENDMDL
