MODEL 1
REMARK VINA RESULT:    -9.803      0.000      0.000
REMARK INTER + INTRA:         -16.444
REMARK INTER:                 -15.248
REMARK INTRA:                  -1.196
REMARK UNBOUND:                -1.196
REMARK SMILES COc1ccc(CN2C3CC2CN(c2ccc(-c4cc(OCC(C)(C)O)cn5ncc(C#N)c45)cn2)C3)cn1
REMARK SMILES IDX 18 1 19 2 20 3 27 4 28 5 29 6 30 7 31 8 34 9 17 10 14 11
REMARK SMILES IDX 15 12 36 13 16 14 35 15 13 16 8 17 11 18 9 19 10 20 12 21
REMARK SMILES IDX 37 22 7 23 6 24 3 25 39 26 4 27 38 28 5 29 2 30 1 31 21 32
REMARK SMILES IDX 22 33 23 34 24 35 25 36 26 37 32 39 33 40
REMARK H PARENT 26 38
REMARK Flexibility Score: inf
ROOT
ATOM      1  C   UNL     1      26.683  11.327  10.296  1.00  0.00     0.014 A 
ATOM      2  C   UNL     1      26.356  12.649  10.654  1.00  0.00     0.059 A 
ATOM      3  C   UNL     1      25.052  12.992  11.060  1.00  0.00     0.138 A 
ATOM      4  C   UNL     1      24.063  11.985  11.088  1.00  0.00     0.159 A 
ATOM      5  N   UNL     1      24.409  10.725  10.719  1.00  0.00    -0.235 N 
ATOM      6  N   UNL     1      23.594   9.684  10.665  1.00  0.00    -0.175 NA
ATOM      7  C   UNL     1      24.323   8.633  10.230  1.00  0.00     0.155 A 
ATOM      8  C   UNL     1      25.632   9.034  10.010  1.00  0.00     0.098 A 
ATOM      9  C   UNL     1      25.649  10.378  10.336  1.00  0.00     0.092 A 
ENDROOT
BRANCH   1  10
ATOM     10  C   UNL     1      28.071  10.980   9.943  1.00  0.00     0.003 A 
ATOM     11  C   UNL     1      30.722  10.355   9.319  1.00  0.00     0.128 A 
ATOM     12  C   UNL     1      29.817  10.686   8.290  1.00  0.00     0.047 A 
ATOM     13  N   UNL     1      30.278  10.352  10.609  1.00  0.00    -0.239 NA
ATOM     14  C   UNL     1      28.495  11.003   8.609  1.00  0.00     0.014 A 
ATOM     15  C   UNL     1      28.996  10.653  10.941  1.00  0.00     0.122 A 
BRANCH  11  16
ATOM     16  N   UNL     1      32.101  10.028   9.042  1.00  0.00    -0.353 N 
ATOM     17  N   UNL     1      34.138   8.795   7.785  1.00  0.00    -0.289 NA
ATOM     18  C   UNL     1      34.179   8.686   9.251  1.00  0.00     0.078 C 
ATOM     19  C   UNL     1      34.338  10.240   7.989  1.00  0.00     0.078 C 
ATOM     20  C   UNL     1      34.859  10.043   9.410  1.00  0.00     0.042 C 
ATOM     21  C   UNL     1      32.714   8.847   9.720  1.00  0.00     0.137 C 
ATOM     22  C   UNL     1      32.920  10.848   8.099  1.00  0.00     0.137 C 
BRANCH  17  23
ATOM     23  C   UNL     1      35.313   8.151   7.162  1.00  0.00     0.122 C 
BRANCH  23  24
ATOM     24  C   UNL     1      35.207   6.659   7.302  1.00  0.00    -0.015 A 
ATOM     25  C   UNL     1      35.053   3.896   7.632  1.00  0.00     0.212 A 
ATOM     26  N   UNL     1      36.260   4.530   7.617  1.00  0.00    -0.222 NA
ATOM     27  C   UNL     1      33.879   4.638   7.478  1.00  0.00     0.069 A 
ATOM     28  C   UNL     1      36.362   5.876   7.458  1.00  0.00     0.120 A 
ATOM     29  C   UNL     1      33.957   6.024   7.318  1.00  0.00     0.012 A 
BRANCH  25  30
ATOM     30  O   UNL     1      34.973   2.510   7.805  1.00  0.00    -0.481 OA
ATOM     31  C   UNL     1      35.788   1.598   7.078  1.00  0.00     0.280 C 
ENDBRANCH  25  30
ENDBRANCH  23  24
ENDBRANCH  17  23
ENDBRANCH  11  16
ENDBRANCH   1  10
BRANCH   3  32
ATOM     32  O   UNL     1      24.803  14.324  11.436  1.00  0.00    -0.489 OA
BRANCH  32  33
ATOM     33  C   UNL     1      25.676  15.435  11.222  1.00  0.00     0.264 C 
BRANCH  33  34
ATOM     34  C   UNL     1      25.272  16.654  12.085  1.00  0.00     0.093 C 
ATOM     35  C   UNL     1      26.517  17.180  12.827  1.00  0.00     0.045 C 
ATOM     36  C   UNL     1      24.698  17.763  11.183  1.00  0.00     0.045 C 
BRANCH  34  37
ATOM     37  O   UNL     1      24.302  16.253  13.021  1.00  0.00    -0.387 OA
ATOM     38  H   UNL     1      24.660  16.429  13.931  1.00  0.00     0.211 HD
ENDBRANCH  34  37
ENDBRANCH  33  34
ENDBRANCH  32  33
ENDBRANCH   3  32
BRANCH   8  39
ATOM     39  C   UNL     1      26.694   8.213   9.489  1.00  0.00     0.103 C 
ATOM     40  N   UNL     1      27.547   7.554   9.072  1.00  0.00    -0.192 NA
ENDBRANCH   8  39
TORSDOF 10
ENDMDL
MODEL 2
REMARK VINA RESULT:    -8.662      3.002     11.575
REMARK INTER + INTRA:         -14.670
REMARK INTER:                 -13.395
REMARK INTRA:                  -1.274
REMARK UNBOUND:                -1.196
REMARK SMILES COc1ccc(CN2C3CC2CN(c2ccc(-c4cc(OCC(C)(C)O)cn5ncc(C#N)c45)cn2)C3)cn1
REMARK SMILES IDX 18 1 19 2 20 3 27 4 28 5 29 6 30 7 31 8 34 9 17 10 14 11
REMARK SMILES IDX 15 12 36 13 16 14 35 15 13 16 8 17 11 18 9 19 10 20 12 21
REMARK SMILES IDX 37 22 7 23 6 24 3 25 39 26 4 27 38 28 5 29 2 30 1 31 21 32
REMARK SMILES IDX 22 33 23 34 24 35 25 36 26 37 32 39 33 40
REMARK H PARENT 26 38
REMARK Flexibility Score: inf
ROOT
ATOM      1  C   UNL     1      35.295   7.836   7.790  1.00  0.00     0.014 A 
ATOM      2  C   UNL     1      35.097   6.917   6.742  1.00  0.00     0.059 A 
ATOM      3  C   UNL     1      36.137   6.073   6.307  1.00  0.00     0.138 A 
ATOM      4  C   UNL     1      37.399   6.176   6.932  1.00  0.00     0.159 A 
ATOM      5  N   UNL     1      37.559   7.087   7.926  1.00  0.00    -0.235 N 
ATOM      6  N   UNL     1      38.682   7.321   8.585  1.00  0.00    -0.175 NA
ATOM      7  C   UNL     1      38.423   8.311   9.468  1.00  0.00     0.155 A 
ATOM      8  C   UNL     1      37.098   8.701   9.354  1.00  0.00     0.098 A 
ATOM      9  C   UNL     1      36.576   7.893   8.359  1.00  0.00     0.092 A 
ENDROOT
BRANCH   1  10
ATOM     10  C   UNL     1      34.170   8.657   8.273  1.00  0.00     0.003 A 
ATOM     11  C   UNL     1      32.003  10.166   9.187  1.00  0.00     0.128 A 
ATOM     12  C   UNL     1      32.880  10.707   8.226  1.00  0.00     0.047 A 
ATOM     13  N   UNL     1      32.233   8.903   9.650  1.00  0.00    -0.239 NA
ATOM     14  C   UNL     1      33.959   9.946   7.769  1.00  0.00     0.014 A 
ATOM     15  C   UNL     1      33.277   8.148   9.222  1.00  0.00     0.122 A 
BRANCH  11  16
ATOM     16  N   UNL     1      30.869  10.909   9.685  1.00  0.00    -0.353 N 
ATOM     17  N   UNL     1      28.284  11.641   9.859  1.00  0.00    -0.289 NA
ATOM     18  C   UNL     1      29.217  12.762   9.679  1.00  0.00     0.078 C 
ATOM     19  C   UNL     1      28.943  11.433  11.159  1.00  0.00     0.078 C 
ATOM     20  C   UNL     1      29.529  12.842  11.171  1.00  0.00     0.042 C 
ATOM     21  C   UNL     1      30.459  12.161   8.981  1.00  0.00     0.137 C 
ATOM     22  C   UNL     1      30.108  10.453  10.887  1.00  0.00     0.137 C 
BRANCH  17  23
ATOM     23  C   UNL     1      26.892  12.114  10.007  1.00  0.00     0.122 C 
BRANCH  23  24
ATOM     24  C   UNL     1      25.958  10.937  10.051  1.00  0.00    -0.015 A 
ATOM     25  C   UNL     1      24.176   8.794  10.083  1.00  0.00     0.212 A 
ATOM     26  N   UNL     1      23.769  10.046  10.439  1.00  0.00    -0.222 NA
ATOM     27  C   UNL     1      25.503   8.581   9.700  1.00  0.00     0.069 A 
ATOM     28  C   UNL     1      24.618  11.107  10.431  1.00  0.00     0.120 A 
ATOM     29  C   UNL     1      26.395   9.657   9.679  1.00  0.00     0.012 A 
BRANCH  25  30
ATOM     30  O   UNL     1      23.281   7.720  10.091  1.00  0.00    -0.481 OA
ATOM     31  C   UNL     1      23.168   6.824  11.191  1.00  0.00     0.280 C 
ENDBRANCH  25  30
ENDBRANCH  23  24
ENDBRANCH  17  23
ENDBRANCH  11  16
ENDBRANCH   1  10
BRANCH   3  32
ATOM     32  O   UNL     1      35.861   5.155   5.279  1.00  0.00    -0.489 OA
BRANCH  32  33
ATOM     33  C   UNL     1      35.583   5.478   3.915  1.00  0.00     0.264 C 
BRANCH  33  34
ATOM     34  C   UNL     1      35.114   4.239   3.117  1.00  0.00     0.093 C 
ATOM     35  C   UNL     1      36.127   3.953   1.991  1.00  0.00     0.045 C 
ATOM     36  C   UNL     1      35.021   3.020   4.055  1.00  0.00     0.045 C 
BRANCH  34  37
ATOM     37  O   UNL     1      33.851   4.504   2.556  1.00  0.00    -0.387 OA
ATOM     38  H   UNL     1      33.807   4.057   1.670  1.00  0.00     0.211 HD
ENDBRANCH  34  37
ENDBRANCH  33  34
ENDBRANCH  32  33
ENDBRANCH   3  32
BRANCH   8  39
ATOM     39  C   UNL     1      36.462   9.766  10.084  1.00  0.00     0.103 C 
ATOM     40  N   UNL     1      35.950  10.621  10.671  1.00  0.00    -0.192 NA
ENDBRANCH   8  39
TORSDOF 10
ENDMDL
MODEL 3
REMARK VINA RESULT:    -8.625      2.731      3.752
REMARK INTER + INTRA:         -14.611
REMARK INTER:                 -13.372
REMARK INTRA:                  -1.239
REMARK UNBOUND:                -1.196
REMARK SMILES COc1ccc(CN2C3CC2CN(c2ccc(-c4cc(OCC(C)(C)O)cn5ncc(C#N)c45)cn2)C3)cn1
REMARK SMILES IDX 18 1 19 2 20 3 27 4 28 5 29 6 30 7 31 8 34 9 17 10 14 11
REMARK SMILES IDX 15 12 36 13 16 14 35 15 13 16 8 17 11 18 9 19 10 20 12 21
REMARK SMILES IDX 37 22 7 23 6 24 3 25 39 26 4 27 38 28 5 29 2 30 1 31 21 32
REMARK SMILES IDX 22 33 23 34 24 35 25 36 26 37 32 39 33 40
REMARK H PARENT 26 38
REMARK Flexibility Score: inf
ROOT
ATOM      1  C   UNL     1      27.073  11.317  10.255  1.00  0.00     0.014 A 
ATOM      2  C   UNL     1      26.719  12.620  10.654  1.00  0.00     0.059 A 
ATOM      3  C   UNL     1      25.400  12.932  11.036  1.00  0.00     0.138 A 
ATOM      4  C   UNL     1      24.424  11.912  10.997  1.00  0.00     0.159 A 
ATOM      5  N   UNL     1      24.797  10.673  10.589  1.00  0.00    -0.235 N 
ATOM      6  N   UNL     1      23.997   9.625  10.471  1.00  0.00    -0.175 NA
ATOM      7  C   UNL     1      24.751   8.600  10.018  1.00  0.00     0.155 A 
ATOM      8  C   UNL     1      26.061   9.024   9.851  1.00  0.00     0.098 A 
ATOM      9  C   UNL     1      26.051  10.355  10.229  1.00  0.00     0.092 A 
ENDROOT
BRANCH   1  10
ATOM     10  C   UNL     1      28.475  11.001   9.928  1.00  0.00     0.003 A 
ATOM     11  C   UNL     1      31.150  10.427   9.360  1.00  0.00     0.128 A 
ATOM     12  C   UNL     1      30.303  10.908   8.341  1.00  0.00     0.047 A 
ATOM     13  N   UNL     1      30.639  10.255  10.613  1.00  0.00    -0.239 NA
ATOM     14  C   UNL     1      28.968  11.199   8.633  1.00  0.00     0.014 A 
ATOM     15  C   UNL     1      29.344  10.528  10.918  1.00  0.00     0.122 A 
BRANCH  11  16
ATOM     16  N   UNL     1      32.539  10.119   9.111  1.00  0.00    -0.353 N 
ATOM     17  N   UNL     1      34.726   9.624   7.622  1.00  0.00    -0.289 NA
ATOM     18  C   UNL     1      34.464   8.618   8.661  1.00  0.00     0.078 C 
ATOM     19  C   UNL     1      34.951  10.565   8.732  1.00  0.00     0.078 C 
ATOM     20  C   UNL     1      35.162   9.440   9.741  1.00  0.00     0.042 C 
ATOM     21  C   UNL     1      32.944   8.693   8.937  1.00  0.00     0.137 C 
ATOM     22  C   UNL     1      33.571  11.197   9.032  1.00  0.00     0.137 C 
BRANCH  17  23
ATOM     23  C   UNL     1      35.971   9.326   6.882  1.00  0.00     0.122 C 
BRANCH  23  24
ATOM     24  C   UNL     1      35.961  10.046   5.563  1.00  0.00    -0.015 A 
ATOM     25  C   UNL     1      35.882  11.331   3.091  1.00  0.00     0.212 A 
ATOM     26  N   UNL     1      36.078   9.984   3.171  1.00  0.00    -0.222 NA
ATOM     27  C   UNL     1      35.722  12.078   4.261  1.00  0.00     0.069 A 
ATOM     28  C   UNL     1      36.120   9.334   4.364  1.00  0.00     0.120 A 
ATOM     29  C   UNL     1      35.756  11.432   5.500  1.00  0.00     0.012 A 
BRANCH  25  30
ATOM     30  O   UNL     1      35.836  11.977   1.852  1.00  0.00    -0.481 OA
ATOM     31  C   UNL     1      36.865  11.844   0.878  1.00  0.00     0.280 C 
ENDBRANCH  25  30
ENDBRANCH  23  24
ENDBRANCH  17  23
ENDBRANCH  11  16
ENDBRANCH   1  10
BRANCH   3  32
ATOM     32  O   UNL     1      25.124  14.245  11.456  1.00  0.00    -0.489 OA
BRANCH  32  33
ATOM     33  C   UNL     1      25.879  15.411  11.122  1.00  0.00     0.264 C 
BRANCH  33  34
ATOM     34  C   UNL     1      25.543  16.598  12.056  1.00  0.00     0.093 C 
ATOM     35  C   UNL     1      26.845  17.117  12.697  1.00  0.00     0.045 C 
ATOM     36  C   UNL     1      24.875  17.725  11.246  1.00  0.00     0.045 C 
BRANCH  34  37
ATOM     37  O   UNL     1      24.668  16.154  13.065  1.00  0.00    -0.387 OA
ATOM     38  H   UNL     1      24.010  15.535  12.652  1.00  0.00     0.211 HD
ENDBRANCH  34  37
ENDBRANCH  33  34
ENDBRANCH  32  33
ENDBRANCH   3  32
BRANCH   8  39
ATOM     39  C   UNL     1      27.147   8.237   9.330  1.00  0.00     0.103 C 
ATOM     40  N   UNL     1      28.019   7.604   8.910  1.00  0.00    -0.192 NA
ENDBRANCH   8  39
TORSDOF 10
ENDMDL
MODEL 4
REMARK VINA RESULT:    -8.605      1.850      2.164
REMARK INTER + INTRA:         -14.580
REMARK INTER:                 -13.291
REMARK INTRA:                  -1.289
REMARK UNBOUND:                -1.196
REMARK SMILES COc1ccc(CN2C3CC2CN(c2ccc(-c4cc(OCC(C)(C)O)cn5ncc(C#N)c45)cn2)C3)cn1
REMARK SMILES IDX 18 1 19 2 20 3 27 4 28 5 29 6 30 7 31 8 34 9 17 10 14 11
REMARK SMILES IDX 15 12 36 13 16 14 35 15 13 16 8 17 11 18 9 19 10 20 12 21
REMARK SMILES IDX 37 22 7 23 6 24 3 25 39 26 4 27 38 28 5 29 2 30 1 31 21 32
REMARK SMILES IDX 22 33 23 34 24 35 25 36 26 37 32 39 33 40
REMARK H PARENT 26 38
REMARK Flexibility Score: inf
ROOT
ATOM      1  C   UNL     1      27.806  11.308  10.034  1.00  0.00     0.014 A 
ATOM      2  C   UNL     1      27.419  12.619  10.370  1.00  0.00     0.059 A 
ATOM      3  C   UNL     1      26.087  12.920  10.714  1.00  0.00     0.138 A 
ATOM      4  C   UNL     1      25.132  11.880  10.700  1.00  0.00     0.159 A 
ATOM      5  N   UNL     1      25.537  10.632  10.352  1.00  0.00    -0.235 N 
ATOM      6  N   UNL     1      24.759   9.564  10.264  1.00  0.00    -0.175 NA
ATOM      7  C   UNL     1      25.543   8.536   9.870  1.00  0.00     0.155 A 
ATOM      8  C   UNL     1      26.846   8.980   9.709  1.00  0.00     0.098 A 
ATOM      9  C   UNL     1      26.804  10.325  10.030  1.00  0.00     0.092 A 
ENDROOT
BRANCH   1  10
ATOM     10  C   UNL     1      29.220  11.006   9.748  1.00  0.00     0.003 A 
ATOM     11  C   UNL     1      31.884  10.409   9.155  1.00  0.00     0.128 A 
ATOM     12  C   UNL     1      31.404  10.245  10.470  1.00  0.00     0.047 A 
ATOM     13  N   UNL     1      31.027  10.856   8.192  1.00  0.00    -0.239 NA
ATOM     14  C   UNL     1      30.069  10.540  10.759  1.00  0.00     0.014 A 
ATOM     15  C   UNL     1      29.728  11.152   8.452  1.00  0.00     0.122 A 
BRANCH  11  16
ATOM     16  N   UNL     1      33.253  10.110   8.804  1.00  0.00    -0.353 N 
ATOM     17  N   UNL     1      35.247   9.049   7.339  1.00  0.00    -0.289 NA
ATOM     18  C   UNL     1      35.316   8.729   8.772  1.00  0.00     0.078 C 
ATOM     19  C   UNL     1      35.472  10.446   7.743  1.00  0.00     0.078 C 
ATOM     20  C   UNL     1      36.018  10.042   9.109  1.00  0.00     0.042 C 
ATOM     21  C   UNL     1      33.863   8.838   9.292  1.00  0.00     0.137 C 
ATOM     22  C   UNL     1      34.065  11.048   7.971  1.00  0.00     0.137 C 
BRANCH  17  23
ATOM     23  C   UNL     1      36.400   8.488   6.604  1.00  0.00     0.122 C 
BRANCH  23  24
ATOM     24  C   UNL     1      35.958   7.298   5.799  1.00  0.00    -0.015 A 
ATOM     25  C   UNL     1      35.070   5.088   4.353  1.00  0.00     0.212 A 
ATOM     26  N   UNL     1      35.187   5.032   5.710  1.00  0.00    -0.222 NA
ATOM     27  C   UNL     1      35.402   6.265   3.678  1.00  0.00     0.069 A 
ATOM     28  C   UNL     1      35.617   6.095   6.439  1.00  0.00     0.120 A 
ATOM     29  C   UNL     1      35.842   7.375   4.404  1.00  0.00     0.012 A 
BRANCH  25  30
ATOM     30  O   UNL     1      34.618   3.982   3.626  1.00  0.00    -0.481 OA
ATOM     31  C   UNL     1      34.702   3.909   2.208  1.00  0.00     0.280 C 
ENDBRANCH  25  30
ENDBRANCH  23  24
ENDBRANCH  17  23
ENDBRANCH  11  16
ENDBRANCH   1  10
BRANCH   3  32
ATOM     32  O   UNL     1      25.777  14.243  11.072  1.00  0.00    -0.489 OA
BRANCH  32  33
ATOM     33  C   UNL     1      26.631  15.379  10.916  1.00  0.00     0.264 C 
BRANCH  33  34
ATOM     34  C   UNL     1      26.139  16.584  11.752  1.00  0.00     0.093 C 
ATOM     35  C   UNL     1      26.137  17.844  10.864  1.00  0.00     0.045 C 
ATOM     36  C   UNL     1      24.714  16.311  12.271  1.00  0.00     0.045 C 
BRANCH  34  37
ATOM     37  O   UNL     1      27.012  16.776  12.839  1.00  0.00    -0.387 OA
ATOM     38  H   UNL     1      27.557  17.587  12.656  1.00  0.00     0.211 HD
ENDBRANCH  34  37
ENDBRANCH  33  34
ENDBRANCH  32  33
ENDBRANCH   3  32
BRANCH   8  39
ATOM     39  C   UNL     1      27.958   8.193   9.242  1.00  0.00     0.103 C 
ATOM     40  N   UNL     1      28.850   7.562   8.866  1.00  0.00    -0.192 NA
ENDBRANCH   8  39
TORSDOF 10
ENDMDL
MODEL 5
REMARK VINA RESULT:    -8.551      3.290     12.894
REMARK INTER + INTRA:         -14.497
REMARK INTER:                 -13.469
REMARK INTRA:                  -1.028
REMARK UNBOUND:                -1.196
REMARK SMILES COc1ccc(CN2C3CC2CN(c2ccc(-c4cc(OCC(C)(C)O)cn5ncc(C#N)c45)cn2)C3)cn1
REMARK SMILES IDX 18 1 19 2 20 3 27 4 28 5 29 6 30 7 31 8 34 9 17 10 14 11
REMARK SMILES IDX 15 12 36 13 16 14 35 15 13 16 8 17 11 18 9 19 10 20 12 21
REMARK SMILES IDX 37 22 7 23 6 24 3 25 39 26 4 27 38 28 5 29 2 30 1 31 21 32
REMARK SMILES IDX 22 33 23 34 24 35 25 36 26 37 32 39 33 40
REMARK H PARENT 26 38
REMARK Flexibility Score: inf
ROOT
ATOM      1  C   UNL     1      35.720   4.521   5.046  1.00  0.00     0.014 A 
ATOM      2  C   UNL     1      35.013   4.003   3.944  1.00  0.00     0.059 A 
ATOM      3  C   UNL     1      35.567   2.994   3.133  1.00  0.00     0.138 A 
ATOM      4  C   UNL     1      36.861   2.516   3.435  1.00  0.00     0.159 A 
ATOM      5  N   UNL     1      37.520   3.052   4.494  1.00  0.00    -0.235 N 
ATOM      6  N   UNL     1      38.744   2.731   4.885  1.00  0.00    -0.175 NA
ATOM      7  C   UNL     1      39.032   3.505   5.954  1.00  0.00     0.155 A 
ATOM      8  C   UNL     1      37.954   4.330   6.237  1.00  0.00     0.098 A 
ATOM      9  C   UNL     1      37.005   4.008   5.283  1.00  0.00     0.092 A 
ENDROOT
BRANCH   1  10
ATOM     10  C   UNL     1      35.088   5.526   5.920  1.00  0.00     0.003 A 
ATOM     11  C   UNL     1      33.941   7.463   7.575  1.00  0.00     0.128 A 
ATOM     12  C   UNL     1      33.749   6.095   7.857  1.00  0.00     0.047 A 
ATOM     13  N   UNL     1      34.693   7.812   6.492  1.00  0.00    -0.239 NA
ATOM     14  C   UNL     1      34.330   5.132   7.029  1.00  0.00     0.014 A 
ATOM     15  C   UNL     1      35.263   6.892   5.672  1.00  0.00     0.122 A 
BRANCH  11  16
ATOM     16  N   UNL     1      33.368   8.497   8.405  1.00  0.00    -0.353 N 
ATOM     17  N   UNL     1      31.515  10.285   9.190  1.00  0.00    -0.289 NA
ATOM     18  C   UNL     1      32.869  10.841   9.053  1.00  0.00     0.078 C 
ATOM     19  C   UNL     1      32.070   9.470  10.283  1.00  0.00     0.078 C 
ATOM     20  C   UNL     1      33.281  10.383  10.449  1.00  0.00     0.042 C 
ATOM     21  C   UNL     1      33.591   9.926   8.036  1.00  0.00     0.137 C 
ATOM     22  C   UNL     1      32.567   8.163   9.622  1.00  0.00     0.137 C 
BRANCH  17  23
ATOM     23  C   UNL     1      30.560  11.301   9.680  1.00  0.00     0.122 C 
BRANCH  23  24
ATOM     24  C   UNL     1      29.168  10.733   9.674  1.00  0.00    -0.015 A 
ATOM     25  C   UNL     1      26.586   9.688   9.744  1.00  0.00     0.212 A 
ATOM     26  N   UNL     1      27.590   9.116  10.467  1.00  0.00    -0.222 NA
ATOM     27  C   UNL     1      26.854  10.810   8.955  1.00  0.00     0.069 A 
ATOM     28  C   UNL     1      28.857   9.606  10.451  1.00  0.00     0.120 A 
ATOM     29  C   UNL     1      28.148  11.337   8.925  1.00  0.00     0.012 A 
BRANCH  25  30
ATOM     30  O   UNL     1      25.288   9.169   9.783  1.00  0.00    -0.481 OA
ATOM     31  C   UNL     1      24.242   9.774  10.534  1.00  0.00     0.280 C 
ENDBRANCH  25  30
ENDBRANCH  23  24
ENDBRANCH  17  23
ENDBRANCH  11  16
ENDBRANCH   1  10
BRANCH   3  32
ATOM     32  O   UNL     1      34.794   2.498   2.069  1.00  0.00    -0.489 OA
BRANCH  32  33
ATOM     33  C   UNL     1      35.275   1.721   0.970  1.00  0.00     0.264 C 
BRANCH  33  34
ATOM     34  C   UNL     1      35.072   0.206   1.209  1.00  0.00     0.093 C 
ATOM     35  C   UNL     1      34.506  -0.433  -0.075  1.00  0.00     0.045 C 
ATOM     36  C   UNL     1      36.419  -0.450   1.567  1.00  0.00     0.045 C 
BRANCH  34  37
ATOM     37  O   UNL     1      34.159   0.026   2.265  1.00  0.00    -0.387 OA
ATOM     38  H   UNL     1      33.949  -0.943   2.328  1.00  0.00     0.211 HD
ENDBRANCH  34  37
ENDBRANCH  33  34
ENDBRANCH  32  33
ENDBRANCH   3  32
BRANCH   8  39
ATOM     39  C   UNL     1      37.902   5.335   7.265  1.00  0.00     0.103 C 
ATOM     40  N   UNL     1      37.861   6.143   8.092  1.00  0.00    -0.192 NA
ENDBRANCH   8  39
TORSDOF 10
ENDMDL
MODEL 6
REMARK VINA RESULT:    -8.504      3.293      5.236
REMARK INTER + INTRA:         -14.423
REMARK INTER:                 -13.085
REMARK INTRA:                  -1.339
REMARK UNBOUND:                -1.196
REMARK SMILES COc1ccc(CN2C3CC2CN(c2ccc(-c4cc(OCC(C)(C)O)cn5ncc(C#N)c45)cn2)C3)cn1
REMARK SMILES IDX 18 1 19 2 20 3 27 4 28 5 29 6 30 7 31 8 34 9 17 10 14 11
REMARK SMILES IDX 15 12 36 13 16 14 35 15 13 16 8 17 11 18 9 19 10 20 12 21
REMARK SMILES IDX 37 22 7 23 6 24 3 25 39 26 4 27 38 28 5 29 2 30 1 31 21 32
REMARK SMILES IDX 22 33 23 34 24 35 25 36 26 37 32 39 33 40
REMARK H PARENT 26 38
REMARK Flexibility Score: inf
ROOT
ATOM      1  C   UNL     1      27.015  11.464  10.297  1.00  0.00     0.014 A 
ATOM      2  C   UNL     1      26.605  12.761  10.661  1.00  0.00     0.059 A 
ATOM      3  C   UNL     1      25.267  13.032  11.006  1.00  0.00     0.138 A 
ATOM      4  C   UNL     1      24.330  11.976  10.965  1.00  0.00     0.159 A 
ATOM      5  N   UNL     1      24.756  10.744  10.590  1.00  0.00    -0.235 N 
ATOM      6  N   UNL     1      23.997   9.665  10.475  1.00  0.00    -0.175 NA
ATOM      7  C   UNL     1      24.799   8.660  10.060  1.00  0.00     0.155 A 
ATOM      8  C   UNL     1      26.096   9.128   9.915  1.00  0.00     0.098 A 
ATOM      9  C   UNL     1      26.030  10.465  10.266  1.00  0.00     0.092 A 
ENDROOT
BRANCH   1  10
ATOM     10  C   UNL     1      28.435  11.193  10.009  1.00  0.00     0.003 A 
ATOM     11  C   UNL     1      31.142  10.708   9.513  1.00  0.00     0.128 A 
ATOM     12  C   UNL     1      30.292  11.094   8.457  1.00  0.00     0.047 A 
ATOM     13  N   UNL     1      30.618  10.583  10.766  1.00  0.00    -0.239 NA
ATOM     14  C   UNL     1      28.941  11.341   8.712  1.00  0.00     0.014 A 
ATOM     15  C   UNL     1      29.307  10.814  11.036  1.00  0.00     0.122 A 
BRANCH  11  16
ATOM     16  N   UNL     1      32.547  10.449   9.302  1.00  0.00    -0.353 N 
ATOM     17  N   UNL     1      35.115  11.063   8.776  1.00  0.00    -0.289 NA
ATOM     18  C   UNL     1      34.568   9.987   7.937  1.00  0.00     0.078 C 
ATOM     19  C   UNL     1      34.934  10.137   9.906  1.00  0.00     0.078 C 
ATOM     20  C   UNL     1      34.850   8.919   8.991  1.00  0.00     0.042 C 
ATOM     21  C   UNL     1      33.039  10.216   7.912  1.00  0.00     0.137 C 
ATOM     22  C   UNL     1      33.509  10.406  10.445  1.00  0.00     0.137 C 
BRANCH  17  23
ATOM     23  C   UNL     1      36.542  11.309   8.478  1.00  0.00     0.122 C 
BRANCH  23  24
ATOM     24  C   UNL     1      36.930  12.680   8.956  1.00  0.00    -0.015 A 
ATOM     25  C   UNL     1      37.617  15.205   9.915  1.00  0.00     0.212 A 
ATOM     26  N   UNL     1      36.324  14.772   9.953  1.00  0.00    -0.222 NA
ATOM     27  C   UNL     1      38.609  14.376   9.386  1.00  0.00     0.069 A 
ATOM     28  C   UNL     1      35.963  13.545   9.493  1.00  0.00     0.120 A 
ATOM     29  C   UNL     1      38.265  13.108   8.910  1.00  0.00     0.012 A 
BRANCH  25  30
ATOM     30  O   UNL     1      37.964  16.469  10.402  1.00  0.00    -0.481 OA
ATOM     31  C   UNL     1      38.345  17.542   9.549  1.00  0.00     0.280 C 
ENDBRANCH  25  30
ENDBRANCH  23  24
ENDBRANCH  17  23
ENDBRANCH  11  16
ENDBRANCH   1  10
BRANCH   3  32
ATOM     32  O   UNL     1      24.934  14.341  11.393  1.00  0.00    -0.489 OA
BRANCH  32  33
ATOM     33  C   UNL     1      25.754  15.501  11.232  1.00  0.00     0.264 C 
BRANCH  33  34
ATOM     34  C   UNL     1      25.261  16.677  12.108  1.00  0.00     0.093 C 
ATOM     35  C   UNL     1      26.454  17.247  12.900  1.00  0.00     0.045 C 
ATOM     36  C   UNL     1      24.657  17.775  11.213  1.00  0.00     0.045 C 
BRANCH  34  37
ATOM     37  O   UNL     1      24.285  16.204  13.004  1.00  0.00    -0.387 OA
ATOM     38  H   UNL     1      24.300  16.784  13.810  1.00  0.00     0.211 HD
ENDBRANCH  34  37
ENDBRANCH  33  34
ENDBRANCH  32  33
ENDBRANCH   3  32
BRANCH   8  39
ATOM     39  C   UNL     1      27.222   8.372   9.435  1.00  0.00     0.103 C 
ATOM     40  N   UNL     1      28.128   7.765   9.049  1.00  0.00    -0.192 NA
ENDBRANCH   8  39
TORSDOF 10
ENDMDL
MODEL 7
REMARK VINA RESULT:    -8.345      2.058      4.324
REMARK INTER + INTRA:         -14.175
REMARK INTER:                 -12.866
REMARK INTRA:                  -1.309
REMARK UNBOUND:                -1.196
REMARK SMILES COc1ccc(CN2C3CC2CN(c2ccc(-c4cc(OCC(C)(C)O)cn5ncc(C#N)c45)cn2)C3)cn1
REMARK SMILES IDX 18 1 19 2 20 3 27 4 28 5 29 6 30 7 31 8 34 9 17 10 14 11
REMARK SMILES IDX 15 12 36 13 16 14 35 15 13 16 8 17 11 18 9 19 10 20 12 21
REMARK SMILES IDX 37 22 7 23 6 24 3 25 39 26 4 27 38 28 5 29 2 30 1 31 21 32
REMARK SMILES IDX 22 33 23 34 24 35 25 36 26 37 32 39 33 40
REMARK H PARENT 26 38
REMARK Flexibility Score: inf
ROOT
ATOM      1  C   UNL     1      27.262  11.925  10.239  1.00  0.00     0.014 A 
ATOM      2  C   UNL     1      26.188  11.018  10.168  1.00  0.00     0.059 A 
ATOM      3  C   UNL     1      24.866  11.433  10.422  1.00  0.00     0.138 A 
ATOM      4  C   UNL     1      24.634  12.783  10.769  1.00  0.00     0.159 A 
ATOM      5  N   UNL     1      25.696  13.624  10.846  1.00  0.00    -0.235 N 
ATOM      6  N   UNL     1      25.646  14.903  11.184  1.00  0.00    -0.175 NA
ATOM      7  C   UNL     1      26.914  15.369  11.161  1.00  0.00     0.155 A 
ATOM      8  C   UNL     1      27.778  14.348  10.795  1.00  0.00     0.098 A 
ATOM      9  C   UNL     1      26.962  13.248  10.599  1.00  0.00     0.092 A 
ENDROOT
BRANCH   1  10
ATOM     10  C   UNL     1      28.626  11.481   9.899  1.00  0.00     0.003 A 
ATOM     11  C   UNL     1      31.230  10.665   9.302  1.00  0.00     0.128 A 
ATOM     12  C   UNL     1      30.388  11.133   8.274  1.00  0.00     0.047 A 
ATOM     13  N   UNL     1      30.750  10.625  10.578  1.00  0.00    -0.239 NA
ATOM     14  C   UNL     1      29.089  11.545   8.579  1.00  0.00     0.014 A 
ATOM     15  C   UNL     1      29.490  11.016  10.897  1.00  0.00     0.122 A 
BRANCH  11  16
ATOM     16  N   UNL     1      32.585  10.237   9.039  1.00  0.00    -0.353 N 
ATOM     17  N   UNL     1      34.611   9.218   7.588  1.00  0.00    -0.289 NA
ATOM     18  C   UNL     1      34.435   8.587   8.904  1.00  0.00     0.078 C 
ATOM     19  C   UNL     1      34.955  10.440   8.334  1.00  0.00     0.078 C 
ATOM     20  C   UNL     1      35.246   9.665   9.616  1.00  0.00     0.042 C 
ATOM     21  C   UNL     1      32.949   8.808   9.275  1.00  0.00     0.137 C 
ATOM     22  C   UNL     1      33.620  11.193   8.545  1.00  0.00     0.137 C 
BRANCH  17  23
ATOM     23  C   UNL     1      35.773   8.656   6.870  1.00  0.00     0.122 C 
BRANCH  23  24
ATOM     24  C   UNL     1      35.661   7.158   6.818  1.00  0.00    -0.015 A 
ATOM     25  C   UNL     1      35.450   4.385   6.639  1.00  0.00     0.212 A 
ATOM     26  N   UNL     1      34.519   5.194   6.058  1.00  0.00    -0.222 NA
ATOM     27  C   UNL     1      36.521   4.951   7.335  1.00  0.00     0.069 A 
ATOM     28  C   UNL     1      34.599   6.549   6.130  1.00  0.00     0.120 A 
ATOM     29  C   UNL     1      36.629   6.341   7.419  1.00  0.00     0.012 A 
BRANCH  25  30
ATOM     30  O   UNL     1      35.349   2.993   6.544  1.00  0.00    -0.481 OA
ATOM     31  C   UNL     1      35.384   2.142   7.683  1.00  0.00     0.280 C 
ENDBRANCH  25  30
ENDBRANCH  23  24
ENDBRANCH  17  23
ENDBRANCH  11  16
ENDBRANCH   1  10
BRANCH   3  32
ATOM     32  O   UNL     1      23.837  10.483  10.301  1.00  0.00    -0.489 OA
BRANCH  32  33
ATOM     33  C   UNL     1      23.646   9.339  11.135  1.00  0.00     0.264 C 
BRANCH  33  34
ATOM     34  C   UNL     1      23.689   8.024  10.321  1.00  0.00     0.093 C 
ATOM     35  C   UNL     1      25.160   7.640  10.064  1.00  0.00     0.045 C 
ATOM     36  C   UNL     1      22.988   6.901  11.109  1.00  0.00     0.045 C 
BRANCH  34  37
ATOM     37  O   UNL     1      23.034   8.223   9.092  1.00  0.00    -0.387 OA
ATOM     38  H   UNL     1      22.071   8.019   9.220  1.00  0.00     0.211 HD
ENDBRANCH  34  37
ENDBRANCH  33  34
ENDBRANCH  32  33
ENDBRANCH   3  32
BRANCH   8  39
ATOM     39  C   UNL     1      29.212  14.439  10.716  1.00  0.00     0.103 C 
ATOM     40  N   UNL     1      30.364  14.511  10.653  1.00  0.00    -0.192 NA
ENDBRANCH   8  39
TORSDOF 10
ENDMDL
MODEL 8
REMARK VINA RESULT:    -8.204      3.489      5.794
REMARK INTER + INTRA:         -13.957
REMARK INTER:                 -12.496
REMARK INTRA:                  -1.461
REMARK UNBOUND:                -1.196
REMARK SMILES COc1ccc(CN2C3CC2CN(c2ccc(-c4cc(OCC(C)(C)O)cn5ncc(C#N)c45)cn2)C3)cn1
REMARK SMILES IDX 18 1 19 2 20 3 27 4 28 5 29 6 30 7 31 8 34 9 17 10 14 11
REMARK SMILES IDX 15 12 36 13 16 14 35 15 13 16 8 17 11 18 9 19 10 20 12 21
REMARK SMILES IDX 37 22 7 23 6 24 3 25 39 26 4 27 38 28 5 29 2 30 1 31 21 32
REMARK SMILES IDX 22 33 23 34 24 35 25 36 26 37 32 39 33 40
REMARK H PARENT 26 38
REMARK Flexibility Score: inf
ROOT
ATOM      1  C   UNL     1      30.614  11.387  10.142  1.00  0.00     0.014 A 
ATOM      2  C   UNL     1      29.403  10.676  10.044  1.00  0.00     0.059 A 
ATOM      3  C   UNL     1      28.199  11.215  10.538  1.00  0.00     0.138 A 
ATOM      4  C   UNL     1      28.228  12.486  11.153  1.00  0.00     0.159 A 
ATOM      5  N   UNL     1      29.417  13.135  11.247  1.00  0.00    -0.235 N 
ATOM      6  N   UNL     1      29.611  14.313  11.818  1.00  0.00    -0.175 NA
ATOM      7  C   UNL     1      30.930  14.588  11.718  1.00  0.00     0.155 A 
ATOM      8  C   UNL     1      31.574  13.550  11.063  1.00  0.00     0.098 A 
ATOM      9  C   UNL     1      30.572  12.640  10.774  1.00  0.00     0.092 A 
ENDROOT
BRANCH   1  10
ATOM     10  C   UNL     1      31.845  10.831   9.553  1.00  0.00     0.003 A 
ATOM     11  C   UNL     1      34.151   9.766   8.389  1.00  0.00     0.128 A 
ATOM     12  C   UNL     1      33.823   9.442   9.721  1.00  0.00     0.047 A 
ATOM     13  N   UNL     1      33.324  10.597   7.691  1.00  0.00    -0.239 NA
ATOM     14  C   UNL     1      32.666   9.974  10.296  1.00  0.00     0.014 A 
ATOM     15  C   UNL     1      32.197  11.127   8.231  1.00  0.00     0.122 A 
BRANCH  11  16
ATOM     16  N   UNL     1      35.331   9.236   7.746  1.00  0.00    -0.353 N 
ATOM     17  N   UNL     1      36.742   7.583   6.156  1.00  0.00    -0.289 NA
ATOM     18  C   UNL     1      37.274   7.707   7.521  1.00  0.00     0.078 C 
ATOM     19  C   UNL     1      37.083   9.008   6.003  1.00  0.00     0.078 C 
ATOM     20  C   UNL     1      38.045   8.981   7.187  1.00  0.00     0.042 C 
ATOM     21  C   UNL     1      36.070   8.116   8.401  1.00  0.00     0.137 C 
ATOM     22  C   UNL     1      35.826   9.791   6.450  1.00  0.00     0.137 C 
BRANCH  17  23
ATOM     23  C   UNL     1      37.593   6.712   5.320  1.00  0.00     0.122 C 
BRANCH  23  24
ATOM     24  C   UNL     1      36.739   5.954   4.343  1.00  0.00    -0.015 A 
ATOM     25  C   UNL     1      35.216   4.553   2.477  1.00  0.00     0.212 A 
ATOM     26  N   UNL     1      35.745   5.772   2.171  1.00  0.00    -0.222 NA
ATOM     27  C   UNL     1      35.436   4.001   3.741  1.00  0.00     0.069 A 
ATOM     28  C   UNL     1      36.492   6.475   3.063  1.00  0.00     0.120 A 
ATOM     29  C   UNL     1      36.204   4.701   4.674  1.00  0.00     0.012 A 
BRANCH  25  30
ATOM     30  O   UNL     1      34.457   3.846   1.539  1.00  0.00    -0.481 OA
ATOM     31  C   UNL     1      34.774   2.517   1.141  1.00  0.00     0.280 C 
ENDBRANCH  25  30
ENDBRANCH  23  24
ENDBRANCH  17  23
ENDBRANCH  11  16
ENDBRANCH   1  10
BRANCH   3  32
ATOM     32  O   UNL     1      27.021  10.466  10.377  1.00  0.00    -0.489 OA
BRANCH  32  33
ATOM     33  C   UNL     1      26.747   9.546   9.318  1.00  0.00     0.264 C 
BRANCH  33  34
ATOM     34  C   UNL     1      26.399   8.139   9.858  1.00  0.00     0.093 C 
ATOM     35  C   UNL     1      24.890   8.080  10.171  1.00  0.00     0.045 C 
ATOM     36  C   UNL     1      26.754   7.074   8.803  1.00  0.00     0.045 C 
BRANCH  34  37
ATOM     37  O   UNL     1      27.132   7.904  11.036  1.00  0.00    -0.387 OA
ATOM     38  H   UNL     1      27.944   7.385  10.795  1.00  0.00     0.211 HD
ENDBRANCH  34  37
ENDBRANCH  33  34
ENDBRANCH  32  33
ENDBRANCH   3  32
BRANCH   8  39
ATOM     39  C   UNL     1      32.989  13.449  10.818  1.00  0.00     0.103 C 
ATOM     40  N   UNL     1      34.125  13.367  10.622  1.00  0.00    -0.192 NA
ENDBRANCH   8  39
TORSDOF 10
ENDMDL
MODEL 9
REMARK VINA RESULT:    -8.023      4.243     10.719
REMARK INTER + INTRA:         -13.675
REMARK INTER:                 -12.284
REMARK INTRA:                  -1.392
REMARK UNBOUND:                -1.196
REMARK SMILES COc1ccc(CN2C3CC2CN(c2ccc(-c4cc(OCC(C)(C)O)cn5ncc(C#N)c45)cn2)C3)cn1
REMARK SMILES IDX 18 1 19 2 20 3 27 4 28 5 29 6 30 7 31 8 34 9 17 10 14 11
REMARK SMILES IDX 15 12 36 13 16 14 35 15 13 16 8 17 11 18 9 19 10 20 12 21
REMARK SMILES IDX 37 22 7 23 6 24 3 25 39 26 4 27 38 28 5 29 2 30 1 31 21 32
REMARK SMILES IDX 22 33 23 34 24 35 25 36 26 37 32 39 33 40
REMARK H PARENT 26 38
REMARK Flexibility Score: inf
ROOT
ATOM      1  C   UNL     1      35.363  11.611   9.191  1.00  0.00     0.014 A 
ATOM      2  C   UNL     1      35.704  12.899   9.645  1.00  0.00     0.059 A 
ATOM      3  C   UNL     1      37.028  13.372   9.565  1.00  0.00     0.138 A 
ATOM      4  C   UNL     1      38.021  12.521   9.032  1.00  0.00     0.159 A 
ATOM      5  N   UNL     1      37.659  11.279   8.622  1.00  0.00    -0.235 N 
ATOM      6  N   UNL     1      38.474  10.360   8.130  1.00  0.00    -0.175 NA
ATOM      7  C   UNL     1      37.725   9.266   7.868  1.00  0.00     0.155 A 
ATOM      8  C   UNL     1      36.404   9.515   8.207  1.00  0.00     0.098 A 
ATOM      9  C   UNL     1      36.400  10.814   8.683  1.00  0.00     0.092 A 
ENDROOT
BRANCH   1  10
ATOM     10  C   UNL     1      33.957  11.167   9.221  1.00  0.00     0.003 A 
ATOM     11  C   UNL     1      31.311  10.275   9.302  1.00  0.00     0.128 A 
ATOM     12  C   UNL     1      31.795  10.931   8.153  1.00  0.00     0.047 A 
ATOM     13  N   UNL     1      32.155  10.085  10.357  1.00  0.00    -0.239 NA
ATOM     14  C   UNL     1      33.121  11.370   8.116  1.00  0.00     0.014 A 
ATOM     15  C   UNL     1      33.446  10.507  10.344  1.00  0.00     0.122 A 
BRANCH  11  16
ATOM     16  N   UNL     1      29.951   9.796   9.387  1.00  0.00    -0.353 N 
ATOM     17  N   UNL     1      27.297   9.968   9.809  1.00  0.00    -0.289 NA
ATOM     18  C   UNL     1      27.957   8.882  10.549  1.00  0.00     0.078 C 
ATOM     19  C   UNL     1      27.669   9.227   8.592  1.00  0.00     0.078 C 
ATOM     20  C   UNL     1      27.889   7.927   9.361  1.00  0.00     0.042 C 
ATOM     21  C   UNL     1      29.431   9.321  10.703  1.00  0.00     0.137 C 
ATOM     22  C   UNL     1      29.063   9.761   8.185  1.00  0.00     0.137 C 
BRANCH  17  23
ATOM     23  C   UNL     1      25.837   9.969  10.037  1.00  0.00     0.122 C 
BRANCH  23  24
ATOM     24  C   UNL     1      25.396  11.332  10.492  1.00  0.00    -0.015 A 
ATOM     25  C   UNL     1      24.566  13.829  11.410  1.00  0.00     0.212 A 
ATOM     26  N   UNL     1      23.761  12.735  11.537  1.00  0.00    -0.222 NA
ATOM     27  C   UNL     1      25.821  13.697  10.810  1.00  0.00     0.069 A 
ATOM     28  C   UNL     1      24.142  11.507  11.098  1.00  0.00     0.120 A 
ATOM     29  C   UNL     1      26.239  12.444  10.355  1.00  0.00     0.012 A 
BRANCH  25  30
ATOM     30  O   UNL     1      24.154  15.081  11.877  1.00  0.00    -0.481 OA
ATOM     31  C   UNL     1      25.067  16.136  12.151  1.00  0.00     0.280 C 
ENDBRANCH  25  30
ENDBRANCH  23  24
ENDBRANCH  17  23
ENDBRANCH  11  16
ENDBRANCH   1  10
BRANCH   3  32
ATOM     32  O   UNL     1      37.293  14.680  10.006  1.00  0.00    -0.489 OA
BRANCH  32  33
ATOM     33  C   UNL     1      36.516  15.424  10.947  1.00  0.00     0.264 C 
BRANCH  33  34
ATOM     34  C   UNL     1      37.411  16.210  11.934  1.00  0.00     0.093 C 
ATOM     35  C   UNL     1      37.866  17.522  11.265  1.00  0.00     0.045 C 
ATOM     36  C   UNL     1      36.618  16.527  13.216  1.00  0.00     0.045 C 
BRANCH  34  37
ATOM     37  O   UNL     1      38.538  15.430  12.252  1.00  0.00    -0.387 OA
ATOM     38  H   UNL     1      38.349  14.492  11.986  1.00  0.00     0.211 HD
ENDBRANCH  34  37
ENDBRANCH  33  34
ENDBRANCH  32  33
ENDBRANCH   3  32
BRANCH   8  39
ATOM     39  C   UNL     1      35.317   8.575   8.129  1.00  0.00     0.103 C 
ATOM     40  N   UNL     1      34.443   7.820   8.066  1.00  0.00    -0.192 NA
ENDBRANCH   8  39
TORSDOF 10
ENDMDL
MODEL 10
REMARK VINA RESULT:    -8.011      4.278      7.560
REMARK INTER + INTRA:         -13.656
REMARK INTER:                 -12.244
REMARK INTRA:                  -1.412
REMARK UNBOUND:                -1.196
REMARK SMILES COc1ccc(CN2C3CC2CN(c2ccc(-c4cc(OCC(C)(C)O)cn5ncc(C#N)c45)cn2)C3)cn1
REMARK SMILES IDX 18 1 19 2 20 3 27 4 28 5 29 6 30 7 31 8 34 9 17 10 14 11
REMARK SMILES IDX 15 12 36 13 16 14 35 15 13 16 8 17 11 18 9 19 10 20 12 21
REMARK SMILES IDX 37 22 7 23 6 24 3 25 39 26 4 27 38 28 5 29 2 30 1 31 21 32
REMARK SMILES IDX 22 33 23 34 24 35 25 36 26 37 32 39 33 40
REMARK H PARENT 26 38
REMARK Flexibility Score: inf
ROOT
ATOM      1  C   UNL     1      33.055   9.685   8.949  1.00  0.00     0.014 A 
ATOM      2  C   UNL     1      31.664   9.636   8.740  1.00  0.00     0.059 A 
ATOM      3  C   UNL     1      30.788  10.462   9.470  1.00  0.00     0.138 A 
ATOM      4  C   UNL     1      31.330  11.337  10.438  1.00  0.00     0.159 A 
ATOM      5  N   UNL     1      32.673  11.343  10.627  1.00  0.00    -0.235 N 
ATOM      6  N   UNL     1      33.326  12.081  11.511  1.00  0.00    -0.175 NA
ATOM      7  C   UNL     1      34.637  11.774  11.391  1.00  0.00     0.155 A 
ATOM      8  C   UNL     1      34.802  10.817  10.402  1.00  0.00     0.098 A 
ATOM      9  C   UNL     1      33.524  10.569   9.933  1.00  0.00     0.092 A 
ENDROOT
BRANCH   1  10
ATOM     10  C   UNL     1      33.954   8.862   8.121  1.00  0.00     0.003 A 
ATOM     11  C   UNL     1      35.638   7.327   6.504  1.00  0.00     0.128 A 
ATOM     12  C   UNL     1      34.976   6.729   7.595  1.00  0.00     0.047 A 
ATOM     13  N   UNL     1      35.435   8.653   6.258  1.00  0.00    -0.239 NA
ATOM     14  C   UNL     1      34.131   7.501   8.397  1.00  0.00     0.014 A 
ATOM     15  C   UNL     1      34.622   9.422   7.027  1.00  0.00     0.122 A 
BRANCH  11  16
ATOM     16  N   UNL     1      36.515   6.571   5.640  1.00  0.00    -0.353 N 
ATOM     17  N   UNL     1      37.675   4.362   4.628  1.00  0.00    -0.289 NA
ATOM     18  C   UNL     1      38.624   5.406   5.041  1.00  0.00     0.078 C 
ATOM     19  C   UNL     1      37.215   5.324   3.612  1.00  0.00     0.078 C 
ATOM     20  C   UNL     1      38.487   6.160   3.721  1.00  0.00     0.042 C 
ATOM     21  C   UNL     1      37.888   6.233   6.121  1.00  0.00     0.137 C 
ATOM     22  C   UNL     1      36.077   6.129   4.282  1.00  0.00     0.137 C 
BRANCH  17  23
ATOM     23  C   UNL     1      38.371   3.205   4.027  1.00  0.00     0.122 C 
BRANCH  23  24
ATOM     24  C   UNL     1      37.365   2.265   3.425  1.00  0.00    -0.015 A 
ATOM     25  C   UNL     1      35.562   0.472   2.286  1.00  0.00     0.212 A 
ATOM     26  N   UNL     1      36.571   1.012   1.545  1.00  0.00    -0.222 NA
ATOM     27  C   UNL     1      35.427   0.823   3.632  1.00  0.00     0.069 A 
ATOM     28  C   UNL     1      37.464   1.888   2.077  1.00  0.00     0.120 A 
ATOM     29  C   UNL     1      36.335   1.718   4.204  1.00  0.00     0.012 A 
BRANCH  25  30
ATOM     30  O   UNL     1      34.660  -0.434   1.718  1.00  0.00    -0.481 OA
ATOM     31  C   UNL     1      34.396  -0.479   0.321  1.00  0.00     0.280 C 
ENDBRANCH  25  30
ENDBRANCH  23  24
ENDBRANCH  17  23
ENDBRANCH  11  16
ENDBRANCH   1  10
BRANCH   3  32
ATOM     32  O   UNL     1      29.413  10.387   9.187  1.00  0.00    -0.489 OA
BRANCH  32  33
ATOM     33  C   UNL     1      28.373  10.119  10.130  1.00  0.00     0.264 C 
BRANCH  33  34
ATOM     34  C   UNL     1      27.823   8.681   9.983  1.00  0.00     0.093 C 
ATOM     35  C   UNL     1      26.285   8.718  10.074  1.00  0.00     0.045 C 
ATOM     36  C   UNL     1      28.251   8.096   8.623  1.00  0.00     0.045 C 
BRANCH  34  37
ATOM     37  O   UNL     1      28.336   7.885  11.025  1.00  0.00    -0.387 OA
ATOM     38  H   UNL     1      28.338   6.940  10.718  1.00  0.00     0.211 HD
ENDBRANCH  34  37
ENDBRANCH  33  34
ENDBRANCH  32  33
ENDBRANCH   3  32
BRANCH   8  39
ATOM     39  C   UNL     1      36.044  10.195  10.023  1.00  0.00     0.103 C 
ATOM     40  N   UNL     1      37.042   9.696   9.720  1.00  0.00    -0.192 NA
ENDBRANCH   8  39
TORSDOF 10
ENDMDL
MODEL 11
REMARK VINA RESULT:    -8.009      2.643     12.064
REMARK INTER + INTRA:         -13.653
REMARK INTER:                 -12.291
REMARK INTRA:                  -1.362
REMARK UNBOUND:                -1.196
REMARK SMILES COc1ccc(CN2C3CC2CN(c2ccc(-c4cc(OCC(C)(C)O)cn5ncc(C#N)c45)cn2)C3)cn1
REMARK SMILES IDX 18 1 19 2 20 3 27 4 28 5 29 6 30 7 31 8 34 9 17 10 14 11
REMARK SMILES IDX 15 12 36 13 16 14 35 15 13 16 8 17 11 18 9 19 10 20 12 21
REMARK SMILES IDX 37 22 7 23 6 24 3 25 39 26 4 27 38 28 5 29 2 30 1 31 21 32
REMARK SMILES IDX 22 33 23 34 24 35 25 36 26 37 32 39 33 40
REMARK H PARENT 26 38
REMARK Flexibility Score: inf
ROOT
ATOM      1  C   UNL     1      35.563   6.467   6.788  1.00  0.00     0.014 A 
ATOM      2  C   UNL     1      34.964   5.647   5.813  1.00  0.00     0.059 A 
ATOM      3  C   UNL     1      35.620   4.500   5.324  1.00  0.00     0.138 A 
ATOM      4  C   UNL     1      36.906   4.193   5.818  1.00  0.00     0.159 A 
ATOM      5  N   UNL     1      37.461   5.017   6.743  1.00  0.00    -0.235 N 
ATOM      6  N   UNL     1      38.663   4.880   7.277  1.00  0.00    -0.175 NA
ATOM      7  C   UNL     1      38.838   5.915   8.129  1.00  0.00     0.155 A 
ATOM      8  C   UNL     1      37.707   6.717   8.124  1.00  0.00     0.098 A 
ATOM      9  C   UNL     1      36.847   6.109   7.227  1.00  0.00     0.092 A 
ENDROOT
BRANCH   1  10
ATOM     10  C   UNL     1      34.825   7.621   7.335  1.00  0.00     0.003 A 
ATOM     11  C   UNL     1      33.379   9.774   8.373  1.00  0.00     0.128 A 
ATOM     12  C   UNL     1      34.298   9.985   7.326  1.00  0.00     0.047 A 
ATOM     13  N   UNL     1      33.213   8.509   8.857  1.00  0.00    -0.239 NA
ATOM     14  C   UNL     1      35.014   8.903   6.807  1.00  0.00     0.014 A 
ATOM     15  C   UNL     1      33.901   7.445   8.371  1.00  0.00     0.122 A 
BRANCH  11  16
ATOM     16  N   UNL     1      32.609  10.857   8.938  1.00  0.00    -0.353 N 
ATOM     17  N   UNL     1      30.494  12.017  10.135  1.00  0.00    -0.289 NA
ATOM     18  C   UNL     1      30.923  12.679   8.894  1.00  0.00     0.078 C 
ATOM     19  C   UNL     1      31.798  12.425  10.683  1.00  0.00     0.078 C 
ATOM     20  C   UNL     1      32.001  13.488   9.608  1.00  0.00     0.042 C 
ATOM     21  C   UNL     1      31.640  11.586   8.067  1.00  0.00     0.137 C 
ATOM     22  C   UNL     1      32.768  11.261  10.368  1.00  0.00     0.137 C 
BRANCH  17  23
ATOM     23  C   UNL     1      29.371  12.736  10.772  1.00  0.00     0.122 C 
BRANCH  23  24
ATOM     24  C   UNL     1      28.100  11.955  10.589  1.00  0.00    -0.015 A 
ATOM     25  C   UNL     1      25.766  10.457  10.314  1.00  0.00     0.212 A 
ATOM     26  N   UNL     1      26.990   9.858  10.264  1.00  0.00    -0.222 NA
ATOM     27  C   UNL     1      25.680  11.839  10.502  1.00  0.00     0.069 A 
ATOM     28  C   UNL     1      28.143  10.565  10.396  1.00  0.00     0.120 A 
ATOM     29  C   UNL     1      26.851  12.588  10.645  1.00  0.00     0.012 A 
BRANCH  25  30
ATOM     30  O   UNL     1      24.594   9.706  10.183  1.00  0.00    -0.481 OA
ATOM     31  C   UNL     1      24.603   8.316   9.882  1.00  0.00     0.280 C 
ENDBRANCH  25  30
ENDBRANCH  23  24
ENDBRANCH  17  23
ENDBRANCH  11  16
ENDBRANCH   1  10
BRANCH   3  32
ATOM     32  O   UNL     1      34.950   3.707   4.376  1.00  0.00    -0.489 OA
BRANCH  32  33
ATOM     33  C   UNL     1      35.261   3.617   2.984  1.00  0.00     0.264 C 
BRANCH  33  34
ATOM     34  C   UNL     1      35.458   2.150   2.535  1.00  0.00     0.093 C 
ATOM     35  C   UNL     1      35.024   2.013   1.062  1.00  0.00     0.045 C 
ATOM     36  C   UNL     1      36.941   1.757   2.679  1.00  0.00     0.045 C 
BRANCH  34  37
ATOM     37  O   UNL     1      34.663   1.313   3.339  1.00  0.00    -0.387 OA
ATOM     38  H   UNL     1      34.730   1.633   4.277  1.00  0.00     0.211 HD
ENDBRANCH  34  37
ENDBRANCH  33  34
ENDBRANCH  32  33
ENDBRANCH   3  32
BRANCH   8  39
ATOM     39  C   UNL     1      37.535   7.944   8.855  1.00  0.00     0.103 C 
ATOM     40  N   UNL     1      37.398   8.930   9.444  1.00  0.00    -0.192 NA
ENDBRANCH   8  39
TORSDOF 10
ENDMDL
MODEL 12
REMARK VINA RESULT:    -7.940      3.231      4.072
REMARK INTER + INTRA:         -13.546
REMARK INTER:                 -12.121
REMARK INTRA:                  -1.426
REMARK UNBOUND:                -1.196
REMARK SMILES COc1ccc(CN2C3CC2CN(c2ccc(-c4cc(OCC(C)(C)O)cn5ncc(C#N)c45)cn2)C3)cn1
REMARK SMILES IDX 18 1 19 2 20 3 27 4 28 5 29 6 30 7 31 8 34 9 17 10 14 11
REMARK SMILES IDX 15 12 36 13 16 14 35 15 13 16 8 17 11 18 9 19 10 20 12 21
REMARK SMILES IDX 37 22 7 23 6 24 3 25 39 26 4 27 38 28 5 29 2 30 1 31 21 32
REMARK SMILES IDX 22 33 23 34 24 35 25 36 26 37 32 39 33 40
REMARK H PARENT 26 38
REMARK Flexibility Score: inf
ROOT
ATOM      1  C   UNL     1      30.052  12.253   9.828  1.00  0.00     0.014 A 
ATOM      2  C   UNL     1      30.184  13.558  10.338  1.00  0.00     0.059 A 
ATOM      3  C   UNL     1      29.060  14.289  10.768  1.00  0.00     0.138 A 
ATOM      4  C   UNL     1      27.784  13.693  10.663  1.00  0.00     0.159 A 
ATOM      5  N   UNL     1      27.692  12.441  10.148  1.00  0.00    -0.235 N 
ATOM      6  N   UNL     1      26.572  11.762   9.960  1.00  0.00    -0.175 NA
ATOM      7  C   UNL     1      26.915  10.576   9.411  1.00  0.00     0.155 A 
ATOM      8  C   UNL     1      28.291  10.516   9.256  1.00  0.00     0.098 A 
ATOM      9  C   UNL     1      28.754  11.726   9.742  1.00  0.00     0.092 A 
ENDROOT
BRANCH   1  10
ATOM     10  C   UNL     1      31.252  11.483   9.452  1.00  0.00     0.003 A 
ATOM     11  C   UNL     1      33.503  10.015   8.686  1.00  0.00     0.128 A 
ATOM     12  C   UNL     1      32.969   9.858   9.981  1.00  0.00     0.047 A 
ATOM     13  N   UNL     1      32.899  10.886   7.827  1.00  0.00    -0.239 NA
ATOM     14  C   UNL     1      31.840  10.591  10.356  1.00  0.00     0.014 A 
ATOM     15  C   UNL     1      31.804  11.611   8.172  1.00  0.00     0.122 A 
BRANCH  11  16
ATOM     16  N   UNL     1      34.663   9.274   8.247  1.00  0.00    -0.353 N 
ATOM     17  N   UNL     1      36.221   7.938   6.505  1.00  0.00    -0.289 NA
ATOM     18  C   UNL     1      35.966   7.218   7.761  1.00  0.00     0.078 C 
ATOM     19  C   UNL     1      36.942   8.919   7.333  1.00  0.00     0.078 C 
ATOM     20  C   UNL     1      37.092   7.941   8.495  1.00  0.00     0.042 C 
ATOM     21  C   UNL     1      34.630   7.783   8.299  1.00  0.00     0.137 C 
ATOM     22  C   UNL     1      35.888   9.971   7.752  1.00  0.00     0.137 C 
BRANCH  17  23
ATOM     23  C   UNL     1      37.130   7.179   5.621  1.00  0.00     0.122 C 
BRANCH  23  24
ATOM     24  C   UNL     1      36.325   6.373   4.640  1.00  0.00    -0.015 A 
ATOM     25  C   UNL     1      34.900   4.876   2.772  1.00  0.00     0.212 A 
ATOM     26  N   UNL     1      35.493   6.051   2.418  1.00  0.00    -0.222 NA
ATOM     27  C   UNL     1      35.004   4.417   4.087  1.00  0.00     0.069 A 
ATOM     28  C   UNL     1      36.194   6.800   3.309  1.00  0.00     0.120 A 
ATOM     29  C   UNL     1      35.724   5.165   5.022  1.00  0.00     0.012 A 
BRANCH  25  30
ATOM     30  O   UNL     1      34.190   4.120   1.833  1.00  0.00    -0.481 OA
ATOM     31  C   UNL     1      34.759   3.004   1.158  1.00  0.00     0.280 C 
ENDBRANCH  25  30
ENDBRANCH  23  24
ENDBRANCH  17  23
ENDBRANCH  11  16
ENDBRANCH   1  10
BRANCH   3  32
ATOM     32  O   UNL     1      29.267  15.574  11.298  1.00  0.00    -0.489 OA
BRANCH  32  33
ATOM     33  C   UNL     1      29.191  15.937  12.679  1.00  0.00     0.264 C 
BRANCH  33  34
ATOM     34  C   UNL     1      30.587  15.946  13.345  1.00  0.00     0.093 C 
ATOM     35  C   UNL     1      31.635  16.401  12.311  1.00  0.00     0.045 C 
ATOM     36  C   UNL     1      30.585  16.913  14.545  1.00  0.00     0.045 C 
BRANCH  34  37
ATOM     37  O   UNL     1      30.895  14.645  13.784  1.00  0.00    -0.387 OA
ATOM     38  H   UNL     1      30.938  14.656  14.776  1.00  0.00     0.211 HD
ENDBRANCH  34  37
ENDBRANCH  33  34
ENDBRANCH  32  33
ENDBRANCH   3  32
BRANCH   8  39
ATOM     39  C   UNL     1      29.030   9.438   8.653  1.00  0.00     0.103 C 
ATOM     40  N   UNL     1      29.624   8.573   8.168  1.00  0.00    -0.192 NA
ENDBRANCH   8  39
TORSDOF 10
ENDMDL
MODEL 13
REMARK VINA RESULT:    -7.787      6.006      9.691
REMARK INTER + INTRA:         -13.308
REMARK INTER:                 -11.783
REMARK INTRA:                  -1.525
REMARK UNBOUND:                -1.196
REMARK SMILES COc1ccc(CN2C3CC2CN(c2ccc(-c4cc(OCC(C)(C)O)cn5ncc(C#N)c45)cn2)C3)cn1
REMARK SMILES IDX 18 1 19 2 20 3 27 4 28 5 29 6 30 7 31 8 34 9 17 10 14 11
REMARK SMILES IDX 15 12 36 13 16 14 35 15 13 16 8 17 11 18 9 19 10 20 12 21
REMARK SMILES IDX 37 22 7 23 6 24 3 25 39 26 4 27 38 28 5 29 2 30 1 31 21 32
REMARK SMILES IDX 22 33 23 34 24 35 25 36 26 37 32 39 33 40
REMARK H PARENT 26 38
REMARK Flexibility Score: inf
ROOT
ATOM      1  C   UNL     1      33.167  16.531  10.891  1.00  0.00     0.014 A 
ATOM      2  C   UNL     1      34.560  16.730  10.943  1.00  0.00     0.059 A 
ATOM      3  C   UNL     1      35.105  17.958  11.366  1.00  0.00     0.138 A 
ATOM      4  C   UNL     1      34.225  19.002  11.726  1.00  0.00     0.159 A 
ATOM      5  N   UNL     1      32.889  18.781  11.646  1.00  0.00    -0.235 N 
ATOM      6  N   UNL     1      31.942  19.664  11.919  1.00  0.00    -0.175 NA
ATOM      7  C   UNL     1      30.756  19.056  11.692  1.00  0.00     0.155 A 
ATOM      8  C   UNL     1      30.975  17.755  11.267  1.00  0.00     0.098 A 
ATOM      9  C   UNL     1      32.351  17.614  11.252  1.00  0.00     0.092 A 
ENDROOT
BRANCH   1  10
ATOM     10  C   UNL     1      32.624  15.214  10.512  1.00  0.00     0.003 A 
ATOM     11  C   UNL     1      31.628  12.693   9.835  1.00  0.00     0.128 A 
ATOM     12  C   UNL     1      31.959  13.613   8.820  1.00  0.00     0.047 A 
ATOM     13  N   UNL     1      31.807  13.058  11.137  1.00  0.00    -0.239 NA
ATOM     14  C   UNL     1      32.462  14.870   9.165  1.00  0.00     0.014 A 
ATOM     15  C   UNL     1      32.291  14.275  11.495  1.00  0.00     0.122 A 
BRANCH  11  16
ATOM     16  N   UNL     1      31.113  11.379   9.531  1.00  0.00    -0.353 N 
ATOM     17  N   UNL     1      29.250   9.444   9.340  1.00  0.00    -0.289 NA
ATOM     18  C   UNL     1      30.470   9.039  10.054  1.00  0.00     0.078 C 
ATOM     19  C   UNL     1      30.111   9.574   8.153  1.00  0.00     0.078 C 
ATOM     20  C   UNL     1      31.209   8.707   8.762  1.00  0.00     0.042 C 
ATOM     21  C   UNL     1      31.079  10.347  10.610  1.00  0.00     0.137 C 
ATOM     22  C   UNL     1      30.621  11.034   8.162  1.00  0.00     0.137 C 
BRANCH  17  23
ATOM     23  C   UNL     1      28.297   8.321   9.218  1.00  0.00     0.122 C 
BRANCH  23  24
ATOM     24  C   UNL     1      26.935   8.760   9.677  1.00  0.00    -0.015 A 
ATOM     25  C   UNL     1      24.410   9.633  10.469  1.00  0.00     0.212 A 
ATOM     26  N   UNL     1      25.461  10.500  10.410  1.00  0.00    -0.222 NA
ATOM     27  C   UNL     1      24.600   8.291  10.131  1.00  0.00     0.069 A 
ATOM     28  C   UNL     1      26.702  10.100  10.027  1.00  0.00     0.120 A 
ATOM     29  C   UNL     1      25.865   7.855   9.729  1.00  0.00     0.012 A 
BRANCH  25  30
ATOM     30  O   UNL     1      23.140  10.071  10.859  1.00  0.00    -0.481 OA
ATOM     31  C   UNL     1      22.917  11.345  11.451  1.00  0.00     0.280 C 
ENDBRANCH  25  30
ENDBRANCH  23  24
ENDBRANCH  17  23
ENDBRANCH  11  16
ENDBRANCH   1  10
BRANCH   3  32
ATOM     32  O   UNL     1      36.504  18.077  11.426  1.00  0.00    -0.489 OA
BRANCH  32  33
ATOM     33  C   UNL     1      37.234  19.078  12.139  1.00  0.00     0.264 C 
BRANCH  33  34
ATOM     34  C   UNL     1      37.663  18.585  13.541  1.00  0.00     0.093 C 
ATOM     35  C   UNL     1      39.070  19.130  13.856  1.00  0.00     0.045 C 
ATOM     36  C   UNL     1      36.661  19.087  14.598  1.00  0.00     0.045 C 
BRANCH  34  37
ATOM     37  O   UNL     1      37.692  17.178  13.544  1.00  0.00    -0.387 OA
ATOM     38  H   UNL     1      36.937  16.856  14.103  1.00  0.00     0.211 HD
ENDBRANCH  34  37
ENDBRANCH  33  34
ENDBRANCH  32  33
ENDBRANCH   3  32
BRANCH   8  39
ATOM     39  C   UNL     1      29.963  16.811  10.871  1.00  0.00     0.103 C 
ATOM     40  N   UNL     1      29.150  16.052  10.553  1.00  0.00    -0.192 NA
ENDBRANCH   8  39
TORSDOF 10
ENDMDL
MODEL 14
REMARK VINA RESULT:    -7.748      3.101      4.832
REMARK INTER + INTRA:         -13.248
REMARK INTER:                 -11.820
REMARK INTRA:                  -1.428
REMARK UNBOUND:                -1.196
REMARK SMILES COc1ccc(CN2C3CC2CN(c2ccc(-c4cc(OCC(C)(C)O)cn5ncc(C#N)c45)cn2)C3)cn1
REMARK SMILES IDX 18 1 19 2 20 3 27 4 28 5 29 6 30 7 31 8 34 9 17 10 14 11
REMARK SMILES IDX 15 12 36 13 16 14 35 15 13 16 8 17 11 18 9 19 10 20 12 21
REMARK SMILES IDX 37 22 7 23 6 24 3 25 39 26 4 27 38 28 5 29 2 30 1 31 21 32
REMARK SMILES IDX 22 33 23 34 24 35 25 36 26 37 32 39 33 40
REMARK H PARENT 26 38
REMARK Flexibility Score: inf
ROOT
ATOM      1  C   UNL     1      28.693  10.927   9.710  1.00  0.00     0.014 A 
ATOM      2  C   UNL     1      27.772   9.884   9.502  1.00  0.00     0.059 A 
ATOM      3  C   UNL     1      26.390  10.085   9.685  1.00  0.00     0.138 A 
ATOM      4  C   UNL     1      25.940  11.357  10.101  1.00  0.00     0.159 A 
ATOM      5  N   UNL     1      26.858  12.334  10.311  1.00  0.00    -0.235 N 
ATOM      6  N   UNL     1      26.597  13.562  10.728  1.00  0.00    -0.175 NA
ATOM      7  C   UNL     1      27.781  14.206  10.829  1.00  0.00     0.155 A 
ATOM      8  C   UNL     1      28.808  13.350  10.461  1.00  0.00     0.098 A 
ATOM      9  C   UNL     1      28.178  12.162  10.133  1.00  0.00     0.092 A 
ENDROOT
BRANCH   1  10
ATOM     10  C   UNL     1      30.127  10.710   9.443  1.00  0.00     0.003 A 
ATOM     11  C   UNL     1      32.830  10.278   8.883  1.00  0.00     0.128 A 
ATOM     12  C   UNL     1      32.313   9.946  10.152  1.00  0.00     0.047 A 
ATOM     13  N   UNL     1      31.988  10.804   7.947  1.00  0.00    -0.239 NA
ATOM     14  C   UNL     1      30.960  10.159  10.423  1.00  0.00     0.014 A 
ATOM     15  C   UNL     1      30.670  11.023   8.192  1.00  0.00     0.122 A 
BRANCH  11  16
ATOM     16  N   UNL     1      34.219  10.069   8.550  1.00  0.00    -0.353 N 
ATOM     17  N   UNL     1      36.318   8.863   7.369  1.00  0.00    -0.289 NA
ATOM     18  C   UNL     1      36.468   9.052   8.820  1.00  0.00     0.078 C 
ATOM     19  C   UNL     1      36.335  10.333   7.279  1.00  0.00     0.078 C 
ATOM     20  C   UNL     1      36.968  10.485   8.658  1.00  0.00     0.042 C 
ATOM     21  C   UNL     1      35.029   9.128   9.380  1.00  0.00     0.137 C 
ATOM     22  C   UNL     1      34.858  10.778   7.400  1.00  0.00     0.137 C 
BRANCH  17  23
ATOM     23  C   UNL     1      37.526   8.253   6.775  1.00  0.00     0.122 C 
BRANCH  23  24
ATOM     24  C   UNL     1      37.124   7.226   5.755  1.00  0.00    -0.015 A 
ATOM     25  C   UNL     1      36.368   5.266   3.923  1.00  0.00     0.212 A 
ATOM     26  N   UNL     1      37.384   5.042   4.805  1.00  0.00    -0.222 NA
ATOM     27  C   UNL     1      35.700   6.493   3.934  1.00  0.00     0.069 A 
ATOM     28  C   UNL     1      37.772   5.981   5.708  1.00  0.00     0.120 A 
ATOM     29  C   UNL     1      36.076   7.473   4.857  1.00  0.00     0.012 A 
BRANCH  25  30
ATOM     30  O   UNL     1      35.983   4.281   3.008  1.00  0.00    -0.481 OA
ATOM     31  C   UNL     1      34.644   4.140   2.551  1.00  0.00     0.280 C 
ENDBRANCH  25  30
ENDBRANCH  23  24
ENDBRANCH  17  23
ENDBRANCH  11  16
ENDBRANCH   1  10
BRANCH   3  32
ATOM     32  O   UNL     1      25.523   9.009   9.426  1.00  0.00    -0.489 OA
BRANCH  32  33
ATOM     33  C   UNL     1      25.011   8.090  10.394  1.00  0.00     0.264 C 
BRANCH  33  34
ATOM     34  C   UNL     1      23.465   8.091  10.422  1.00  0.00     0.093 C 
ATOM     35  C   UNL     1      22.973   6.804  11.113  1.00  0.00     0.045 C 
ATOM     36  C   UNL     1      22.959   9.323  11.196  1.00  0.00     0.045 C 
BRANCH  34  37
ATOM     37  O   UNL     1      22.981   8.128   9.101  1.00  0.00    -0.387 OA
ATOM     38  H   UNL     1      23.244   7.281   8.653  1.00  0.00     0.211 HD
ENDBRANCH  34  37
ENDBRANCH  33  34
ENDBRANCH  32  33
ENDBRANCH   3  32
BRANCH   8  39
ATOM     39  C   UNL     1      30.215  13.651  10.493  1.00  0.00     0.103 C 
ATOM     40  N   UNL     1      31.346  13.894  10.518  1.00  0.00    -0.192 NA
ENDBRANCH   8  39
TORSDOF 10
ENDMDL
