MODEL 1
REMARK VINA RESULT:    -9.201      0.000      0.000
REMARK INTER + INTRA:         -14.493
REMARK INTER:                 -13.503
REMARK INTRA:                  -0.990
REMARK UNBOUND:                -0.990
REMARK SMILES CO[C@]1(C(=O)N[C@@H](C)c2ccc(-n3cc(F)cn3)nc2)CC[C@H](c2nc(C)cc(Nc3cc(C)[nH]n3)n2)CC1
REMARK SMILES IDX 3 1 21 2 22 3 23 4 38 5 39 6 2 7 1 8 4 9 5 10 6 11 7 13 8 14
REMARK SMILES IDX 9 15 10 16 20 17 11 18 19 19 12 20 13 21 14 22 18 23 15 24
REMARK SMILES IDX 17 25 16 26 24 27 37 28 25 29 29 30 26 31 28 32 27 33 30 34
REMARK SMILES IDX 31 36 36 37 32 38 35 39 33 40 34 42
REMARK H PARENT 6 12 30 35 35 41
REMARK Flexibility Score: inf
ROOT
ATOM      1  C   UNL     1      11.470  23.208  39.922  1.00  0.00     0.146 C 
ATOM      2  C   UNL     1      10.288  23.106  38.909  1.00  0.00     0.046 C 
ATOM      3  C   UNL     1       9.973  21.645  38.560  1.00  0.00     0.015 C 
ATOM      4  C   UNL     1      11.208  20.938  37.970  1.00  0.00     0.058 C 
ATOM      5  C   UNL     1      12.427  21.066  38.911  1.00  0.00     0.015 C 
ATOM      6  C   UNL     1      12.704  22.533  39.275  1.00  0.00     0.046 C 
ENDROOT
BRANCH   1   7
ATOM      7  O   UNL     1      11.201  22.514  41.144  1.00  0.00    -0.368 OA
ATOM      8  C   UNL     1       9.947  22.837  41.719  1.00  0.00     0.196 C 
ENDBRANCH   1   7
BRANCH   1   9
ATOM      9  C   UNL     1      11.850  24.657  40.195  1.00  0.00     0.252 C 
ATOM     10  O   UNL     1      11.573  25.551  39.350  1.00  0.00    -0.272 OA
ATOM     11  N   UNL     1      12.582  24.997  41.387  1.00  0.00    -0.347 N 
ATOM     12  H   UNL     1      12.862  24.227  42.040  1.00  0.00     0.164 HD
BRANCH  11  13
ATOM     13  C   UNL     1      12.943  26.375  41.744  1.00  0.00     0.111 C 
ATOM     14  C   UNL     1      12.574  26.640  43.204  1.00  0.00     0.036 C 
BRANCH  13  15
ATOM     15  C   UNL     1      14.419  26.640  41.513  1.00  0.00    -0.007 A 
ATOM     16  C   UNL     1      15.020  27.869  41.843  1.00  0.00     0.011 A 
ATOM     17  C   UNL     1      15.200  25.679  40.845  1.00  0.00     0.119 A 
ATOM     18  C   UNL     1      16.364  28.099  41.539  1.00  0.00     0.049 A 
ATOM     19  N   UNL     1      16.502  25.932  40.546  1.00  0.00    -0.237 NA
ATOM     20  C   UNL     1      17.110  27.105  40.875  1.00  0.00     0.153 A 
BRANCH  20  21
ATOM     21  N   UNL     1      18.488  27.305  40.506  1.00  0.00    -0.220 N 
ATOM     22  C   UNL     1      19.387  26.363  40.141  1.00  0.00     0.156 A 
ATOM     23  N   UNL     1      19.069  28.499  40.500  1.00  0.00    -0.172 NA
ATOM     24  C   UNL     1      20.583  27.000  39.891  1.00  0.00     0.161 A 
ATOM     25  C   UNL     1      20.353  28.339  40.126  1.00  0.00     0.174 A 
ATOM     26  F   UNL     1      21.748  26.426  39.505  1.00  0.00    -0.204 F 
ENDBRANCH  20  21
ENDBRANCH  13  15
ENDBRANCH  11  13
ENDBRANCH   1   9
BRANCH   4  27
ATOM     27  C   UNL     1      10.868  19.496  37.700  1.00  0.00     0.134 A 
ATOM     28  N   UNL     1      10.090  19.160  36.634  1.00  0.00    -0.215 NA
ATOM     29  N   UNL     1      11.445  18.514  38.444  1.00  0.00    -0.238 NA
ATOM     30  C   UNL     1       9.863  17.864  36.298  1.00  0.00     0.135 A 
ATOM     31  C   UNL     1      11.236  17.201  38.162  1.00  0.00     0.043 A 
ATOM     32  C   UNL     1      10.430  16.846  37.074  1.00  0.00     0.070 A 
ATOM     33  C   UNL     1      11.872  16.150  39.010  1.00  0.00     0.067 C 
BRANCH  30  34
ATOM     34  N   UNL     1       8.991  17.570  35.198  1.00  0.00    -0.323 N 
ATOM     35  H   UNL     1       8.346  16.760  35.294  1.00  0.00     0.170 HD
BRANCH  34  36
ATOM     36  C   UNL     1       8.925  18.347  33.994  1.00  0.00     0.153 A 
ATOM     37  N   UNL     1      10.022  18.800  33.353  1.00  0.00    -0.158 NA
ATOM     38  C   UNL     1       7.780  18.660  33.273  1.00  0.00     0.071 A 
ATOM     39  N   UNL     1       9.610  19.407  32.250  1.00  0.00    -0.281 N 
ATOM     40  C   UNL     1       8.267  19.333  32.170  1.00  0.00     0.034 A 
ATOM     41  H   UNL     1      10.246  19.835  31.544  1.00  0.00     0.190 HD
ATOM     42  C   UNL     1       7.447  19.912  31.060  1.00  0.00     0.066 C 
ENDBRANCH  34  36
ENDBRANCH  30  34
ENDBRANCH   4  27
TORSDOF 8
ENDMDL
MODEL 2
REMARK VINA RESULT:    -9.185      1.392      1.692
REMARK INTER + INTRA:         -14.470
REMARK INTER:                 -13.395
REMARK INTRA:                  -1.075
REMARK UNBOUND:                -0.990
REMARK SMILES CO[C@]1(C(=O)N[C@@H](C)c2ccc(-n3cc(F)cn3)nc2)CC[C@H](c2nc(C)cc(Nc3cc(C)[nH]n3)n2)CC1
REMARK SMILES IDX 3 1 21 2 22 3 23 4 38 5 39 6 2 7 1 8 4 9 5 10 6 11 7 13 8 14
REMARK SMILES IDX 9 15 10 16 20 17 11 18 19 19 12 20 13 21 14 22 18 23 15 24
REMARK SMILES IDX 17 25 16 26 24 27 37 28 25 29 29 30 26 31 28 32 27 33 30 34
REMARK SMILES IDX 31 36 36 37 32 38 35 39 33 40 34 42
REMARK H PARENT 6 12 30 35 35 41
REMARK Flexibility Score: inf
ROOT
ATOM      1  C   UNL     1      11.721  23.478  39.497  1.00  0.00     0.146 C 
ATOM      2  C   UNL     1      12.867  22.662  38.825  1.00  0.00     0.046 C 
ATOM      3  C   UNL     1      12.411  21.240  38.472  1.00  0.00     0.015 C 
ATOM      4  C   UNL     1      11.922  20.488  39.725  1.00  0.00     0.058 C 
ATOM      5  C   UNL     1      10.826  21.290  40.463  1.00  0.00     0.015 C 
ATOM      6  C   UNL     1      11.291  22.720  40.777  1.00  0.00     0.046 C 
ENDROOT
BRANCH   1   7
ATOM      7  O   UNL     1      10.565  23.584  38.660  1.00  0.00    -0.368 OA
ATOM      8  C   UNL     1       9.449  24.176  39.300  1.00  0.00     0.196 C 
ENDBRANCH   1   7
BRANCH   1   9
ATOM      9  C   UNL     1      12.198  24.855  39.937  1.00  0.00     0.252 C 
ATOM     10  O   UNL     1      12.310  25.784  39.091  1.00  0.00    -0.272 OA
ATOM     11  N   UNL     1      12.584  25.081  41.305  1.00  0.00    -0.347 N 
ATOM     12  H   UNL     1      12.549  24.276  41.975  1.00  0.00     0.164 HD
BRANCH  11  13
ATOM     13  C   UNL     1      13.010  26.390  41.817  1.00  0.00     0.111 C 
ATOM     14  C   UNL     1      12.711  26.479  43.314  1.00  0.00     0.036 C 
BRANCH  13  15
ATOM     15  C   UNL     1      14.483  26.637  41.554  1.00  0.00    -0.007 A 
ATOM     16  C   UNL     1      15.092  27.880  41.809  1.00  0.00     0.011 A 
ATOM     17  C   UNL     1      15.254  25.638  40.931  1.00  0.00     0.119 A 
ATOM     18  C   UNL     1      16.433  28.088  41.477  1.00  0.00     0.049 A 
ATOM     19  N   UNL     1      16.553  25.869  40.604  1.00  0.00    -0.237 NA
ATOM     20  C   UNL     1      17.169  27.057  40.861  1.00  0.00     0.153 A 
BRANCH  20  21
ATOM     21  N   UNL     1      18.542  27.231  40.465  1.00  0.00    -0.220 N 
ATOM     22  C   UNL     1      19.412  26.274  40.068  1.00  0.00     0.156 A 
ATOM     23  N   UNL     1      19.150  28.412  40.464  1.00  0.00    -0.172 NA
ATOM     24  C   UNL     1      20.616  26.888  39.801  1.00  0.00     0.161 A 
ATOM     25  C   UNL     1      20.422  28.228  40.060  1.00  0.00     0.174 A 
ATOM     26  F   UNL     1      21.760  26.293  39.382  1.00  0.00    -0.204 F 
ENDBRANCH  20  21
ENDBRANCH  13  15
ENDBRANCH  11  13
ENDBRANCH   1   9
BRANCH   4  27
ATOM     27  C   UNL     1      11.430  19.123  39.320  1.00  0.00     0.134 A 
ATOM     28  N   UNL     1      11.009  18.893  38.046  1.00  0.00    -0.215 NA
ATOM     29  N   UNL     1      11.527  18.084  40.193  1.00  0.00    -0.238 NA
ATOM     30  C   UNL     1      10.670  17.648  37.622  1.00  0.00     0.135 A 
ATOM     31  C   UNL     1      11.184  16.822  39.825  1.00  0.00     0.043 A 
ATOM     32  C   UNL     1      10.741  16.576  38.520  1.00  0.00     0.070 A 
ATOM     33  C   UNL     1      11.287  15.707  40.813  1.00  0.00     0.067 C 
BRANCH  30  34
ATOM     34  N   UNL     1      10.183  17.474  36.284  1.00  0.00    -0.323 N 
ATOM     35  H   UNL     1      10.121  16.504  35.914  1.00  0.00     0.170 HD
BRANCH  34  36
ATOM     36  C   UNL     1       9.738  18.549  35.444  1.00  0.00     0.153 A 
ATOM     37  N   UNL     1       8.496  19.069  35.516  1.00  0.00    -0.158 NA
ATOM     38  C   UNL     1      10.509  19.260  34.535  1.00  0.00     0.071 A 
ATOM     39  N   UNL     1       8.445  20.084  34.666  1.00  0.00    -0.281 N 
ATOM     40  C   UNL     1       9.644  20.228  34.066  1.00  0.00     0.034 A 
ATOM     41  H   UNL     1       7.611  20.691  34.526  1.00  0.00     0.190 HD
ATOM     42  C   UNL     1       9.961  21.271  33.040  1.00  0.00     0.066 C 
ENDBRANCH  34  36
ENDBRANCH  30  34
ENDBRANCH   4  27
TORSDOF 8
ENDMDL
MODEL 3
REMARK VINA RESULT:    -9.129      3.525     11.916
REMARK INTER + INTRA:         -14.388
REMARK INTER:                 -13.487
REMARK INTRA:                  -0.901
REMARK UNBOUND:                -0.990
REMARK SMILES CO[C@]1(C(=O)N[C@@H](C)c2ccc(-n3cc(F)cn3)nc2)CC[C@H](c2nc(C)cc(Nc3cc(C)[nH]n3)n2)CC1
REMARK SMILES IDX 3 1 21 2 22 3 23 4 38 5 39 6 2 7 1 8 4 9 5 10 6 11 7 13 8 14
REMARK SMILES IDX 9 15 10 16 20 17 11 18 19 19 12 20 13 21 14 22 18 23 15 24
REMARK SMILES IDX 17 25 16 26 24 27 37 28 25 29 29 30 26 31 28 32 27 33 30 34
REMARK SMILES IDX 31 36 36 37 32 38 35 39 33 40 34 42
REMARK H PARENT 6 12 30 35 35 41
REMARK Flexibility Score: inf
ROOT
ATOM      1  C   UNL     1      12.402  20.258  38.042  1.00  0.00     0.146 C 
ATOM      2  C   UNL     1      13.409  21.184  37.291  1.00  0.00     0.046 C 
ATOM      3  C   UNL     1      13.847  22.364  38.169  1.00  0.00     0.015 C 
ATOM      4  C   UNL     1      12.634  23.198  38.622  1.00  0.00     0.058 C 
ATOM      5  C   UNL     1      11.576  22.311  39.317  1.00  0.00     0.015 C 
ATOM      6  C   UNL     1      11.177  21.118  38.435  1.00  0.00     0.046 C 
ENDROOT
BRANCH   1   7
ATOM      7  O   UNL     1      12.951  19.725  39.251  1.00  0.00    -0.368 OA
ATOM      8  C   UNL     1      12.029  18.960  40.006  1.00  0.00     0.196 C 
ENDBRANCH   1   7
BRANCH   1   9
ATOM      9  C   UNL     1      11.890  19.142  37.141  1.00  0.00     0.252 C 
ATOM     10  O   UNL     1      12.699  18.311  36.645  1.00  0.00    -0.272 OA
ATOM     11  N   UNL     1      10.493  19.073  36.803  1.00  0.00    -0.347 N 
ATOM     12  H   UNL     1       9.851  19.815  37.171  1.00  0.00     0.164 HD
BRANCH  11  13
ATOM     13  C   UNL     1       9.915  18.003  35.981  1.00  0.00     0.111 C 
ATOM     14  C   UNL     1       8.859  17.247  36.788  1.00  0.00     0.036 C 
BRANCH  13  15
ATOM     15  C   UNL     1       9.313  18.549  34.700  1.00  0.00    -0.007 A 
ATOM     16  C   UNL     1       8.073  18.104  34.205  1.00  0.00     0.011 A 
ATOM     17  C   UNL     1      10.056  19.448  33.913  1.00  0.00     0.119 A 
ATOM     18  C   UNL     1       7.593  18.576  32.981  1.00  0.00     0.049 A 
ATOM     19  N   UNL     1       9.575  19.881  32.717  1.00  0.00    -0.237 NA
ATOM     20  C   UNL     1       8.368  19.480  32.228  1.00  0.00     0.153 A 
BRANCH  20  21
ATOM     21  N   UNL     1       7.938  19.968  30.944  1.00  0.00    -0.220 N 
ATOM     22  C   UNL     1       8.704  20.216  29.858  1.00  0.00     0.156 A 
ATOM     23  N   UNL     1       6.672  20.266  30.671  1.00  0.00    -0.172 NA
ATOM     24  C   UNL     1       7.879  20.684  28.860  1.00  0.00     0.161 A 
ATOM     25  C   UNL     1       6.610  20.706  29.399  1.00  0.00     0.174 A 
ATOM     26  F   UNL     1       8.241  21.058  27.609  1.00  0.00    -0.204 F 
ENDBRANCH  20  21
ENDBRANCH  13  15
ENDBRANCH  11  13
ENDBRANCH   1   9
BRANCH   4  27
ATOM     27  C   UNL     1      13.107  24.305  39.526  1.00  0.00     0.134 A 
ATOM     28  N   UNL     1      14.421  24.399  39.871  1.00  0.00    -0.215 NA
ATOM     29  N   UNL     1      12.245  25.290  39.896  1.00  0.00    -0.238 NA
ATOM     30  C   UNL     1      14.896  25.450  40.588  1.00  0.00     0.135 A 
ATOM     31  C   UNL     1      12.664  26.355  40.630  1.00  0.00     0.043 A 
ATOM     32  C   UNL     1      14.011  26.456  40.997  1.00  0.00     0.070 A 
ATOM     33  C   UNL     1      11.688  27.410  41.033  1.00  0.00     0.067 C 
BRANCH  30  34
ATOM     34  N   UNL     1      16.279  25.469  40.968  1.00  0.00    -0.323 N 
ATOM     35  H   UNL     1      16.656  24.636  41.464  1.00  0.00     0.170 HD
BRANCH  34  36
ATOM     36  C   UNL     1      17.181  26.544  40.669  1.00  0.00     0.153 A 
ATOM     37  N   UNL     1      16.810  27.840  40.698  1.00  0.00    -0.158 NA
ATOM     38  C   UNL     1      18.540  26.435  40.411  1.00  0.00     0.071 A 
ATOM     39  N   UNL     1      17.892  28.564  40.451  1.00  0.00    -0.281 N 
ATOM     40  C   UNL     1      18.951  27.746  40.281  1.00  0.00     0.034 A 
ATOM     41  H   UNL     1      17.910  29.605  40.434  1.00  0.00     0.190 HD
ATOM     42  C   UNL     1      20.342  28.208  39.981  1.00  0.00     0.066 C 
ENDBRANCH  34  36
ENDBRANCH  30  34
ENDBRANCH   4  27
TORSDOF 8
ENDMDL
MODEL 4
REMARK VINA RESULT:    -9.052      5.433      9.677
REMARK INTER + INTRA:         -14.275
REMARK INTER:                 -13.593
REMARK INTRA:                  -0.682
REMARK UNBOUND:                -0.990
REMARK SMILES CO[C@]1(C(=O)N[C@@H](C)c2ccc(-n3cc(F)cn3)nc2)CC[C@H](c2nc(C)cc(Nc3cc(C)[nH]n3)n2)CC1
REMARK SMILES IDX 3 1 21 2 22 3 23 4 38 5 39 6 2 7 1 8 4 9 5 10 6 11 7 13 8 14
REMARK SMILES IDX 9 15 10 16 20 17 11 18 19 19 12 20 13 21 14 22 18 23 15 24
REMARK SMILES IDX 17 25 16 26 24 27 37 28 25 29 29 30 26 31 28 32 27 33 30 34
REMARK SMILES IDX 31 36 36 37 32 38 35 39 33 40 34 42
REMARK H PARENT 6 12 30 35 35 41
REMARK Flexibility Score: inf
ROOT
ATOM      1  C   UNL     1      19.593  25.694  39.841  1.00  0.00     0.146 C 
ATOM      2  C   UNL     1      18.958  24.755  40.912  1.00  0.00     0.046 C 
ATOM      3  C   UNL     1      17.425  24.819  40.875  1.00  0.00     0.015 C 
ATOM      4  C   UNL     1      16.925  26.257  41.104  1.00  0.00     0.058 C 
ATOM      5  C   UNL     1      17.578  27.240  40.105  1.00  0.00     0.015 C 
ATOM      6  C   UNL     1      19.110  27.135  40.134  1.00  0.00     0.046 C 
ENDROOT
BRANCH   1   7
ATOM      7  O   UNL     1      19.173  25.368  38.512  1.00  0.00    -0.368 OA
ATOM      8  C   UNL     1      20.056  24.492  37.834  1.00  0.00     0.196 C 
ENDBRANCH   1   7
BRANCH   1   9
ATOM      9  C   UNL     1      21.113  25.708  39.940  1.00  0.00     0.252 C 
ATOM     10  O   UNL     1      21.745  26.790  39.795  1.00  0.00    -0.272 OA
ATOM     11  N   UNL     1      21.833  24.477  40.133  1.00  0.00    -0.347 N 
ATOM     12  H   UNL     1      21.291  23.581  40.181  1.00  0.00     0.164 HD
BRANCH  11  13
ATOM     13  C   UNL     1      23.292  24.412  40.285  1.00  0.00     0.111 C 
ATOM     14  C   UNL     1      23.645  23.565  41.508  1.00  0.00     0.036 C 
BRANCH  13  15
ATOM     15  C   UNL     1      23.955  23.850  39.042  1.00  0.00    -0.007 A 
ATOM     16  C   UNL     1      25.205  23.204  39.086  1.00  0.00     0.011 A 
ATOM     17  C   UNL     1      23.370  24.073  37.782  1.00  0.00     0.119 A 
ATOM     18  C   UNL     1      25.817  22.772  37.906  1.00  0.00     0.049 A 
ATOM     19  N   UNL     1      23.992  23.657  36.647  1.00  0.00    -0.237 NA
ATOM     20  C   UNL     1      25.191  23.011  36.667  1.00  0.00     0.153 A 
BRANCH  20  21
ATOM     21  N   UNL     1      25.795  22.620  35.420  1.00  0.00    -0.220 N 
ATOM     22  C   UNL     1      26.724  21.658  35.220  1.00  0.00     0.156 A 
ATOM     23  N   UNL     1      25.506  23.205  34.262  1.00  0.00    -0.172 NA
ATOM     24  C   UNL     1      27.025  21.638  33.877  1.00  0.00     0.161 A 
ATOM     25  C   UNL     1      26.247  22.619  33.301  1.00  0.00     0.174 A 
ATOM     26  F   UNL     1      27.912  20.826  33.251  1.00  0.00    -0.204 F 
ENDBRANCH  20  21
ENDBRANCH  13  15
ENDBRANCH  11  13
ENDBRANCH   1   9
BRANCH   4  27
ATOM     27  C   UNL     1      15.423  26.280  41.000  1.00  0.00     0.134 A 
ATOM     28  N   UNL     1      14.734  25.138  40.726  1.00  0.00    -0.215 NA
ATOM     29  N   UNL     1      14.741  27.416  41.308  1.00  0.00    -0.238 NA
ATOM     30  C   UNL     1      13.377  25.104  40.740  1.00  0.00     0.135 A 
ATOM     31  C   UNL     1      13.382  27.441  41.319  1.00  0.00     0.043 A 
ATOM     32  C   UNL     1      12.665  26.274  41.030  1.00  0.00     0.070 A 
ATOM     33  C   UNL     1      12.666  28.710  41.646  1.00  0.00     0.067 C 
BRANCH  30  34
ATOM     34  N   UNL     1      12.705  23.885  40.391  1.00  0.00    -0.323 N 
ATOM     35  H   UNL     1      11.810  23.670  40.874  1.00  0.00     0.170 HD
BRANCH  34  36
ATOM     36  C   UNL     1      13.170  22.969  39.390  1.00  0.00     0.153 A 
ATOM     37  N   UNL     1      13.497  23.354  38.139  1.00  0.00    -0.158 NA
ATOM     38  C   UNL     1      13.441  21.619  39.567  1.00  0.00     0.071 A 
ATOM     39  N   UNL     1      13.955  22.284  37.506  1.00  0.00    -0.281 N 
ATOM     40  C   UNL     1      13.941  21.227  38.341  1.00  0.00     0.034 A 
ATOM     41  H   UNL     1      14.306  22.289  36.525  1.00  0.00     0.190 HD
ATOM     42  C   UNL     1      14.384  19.846  37.973  1.00  0.00     0.066 C 
ENDBRANCH  34  36
ENDBRANCH  30  34
ENDBRANCH   4  27
TORSDOF 8
ENDMDL
MODEL 5
REMARK VINA RESULT:    -9.005      3.473     11.719
REMARK INTER + INTRA:         -14.206
REMARK INTER:                 -13.876
REMARK INTRA:                  -0.330
REMARK UNBOUND:                -0.990
REMARK SMILES CO[C@]1(C(=O)N[C@@H](C)c2ccc(-n3cc(F)cn3)nc2)CC[C@H](c2nc(C)cc(Nc3cc(C)[nH]n3)n2)CC1
REMARK SMILES IDX 3 1 21 2 22 3 23 4 38 5 39 6 2 7 1 8 4 9 5 10 6 11 7 13 8 14
REMARK SMILES IDX 9 15 10 16 20 17 11 18 19 19 12 20 13 21 14 22 18 23 15 24
REMARK SMILES IDX 17 25 16 26 24 27 37 28 25 29 29 30 26 31 28 32 27 33 30 34
REMARK SMILES IDX 31 36 36 37 32 38 35 39 33 40 34 42
REMARK H PARENT 6 12 30 35 35 41
REMARK Flexibility Score: inf
ROOT
ATOM      1  C   UNL     1      11.764  23.485  39.646  1.00  0.00     0.146 C 
ATOM      2  C   UNL     1      11.623  23.738  41.179  1.00  0.00     0.046 C 
ATOM      3  C   UNL     1      12.097  25.146  41.561  1.00  0.00     0.015 C 
ATOM      4  C   UNL     1      13.563  25.370  41.144  1.00  0.00     0.058 C 
ATOM      5  C   UNL     1      13.767  25.069  39.642  1.00  0.00     0.015 C 
ATOM      6  C   UNL     1      13.255  23.668  39.274  1.00  0.00     0.046 C 
ENDROOT
BRANCH   1   7
ATOM      7  O   UNL     1      11.016  24.425  38.868  1.00  0.00    -0.368 OA
ATOM      8  C   UNL     1       9.669  24.566  39.286  1.00  0.00     0.196 C 
ENDBRANCH   1   7
BRANCH   1   9
ATOM      9  C   UNL     1      11.387  22.057  39.277  1.00  0.00     0.252 C 
ATOM     10  O   UNL     1      11.674  21.108  40.057  1.00  0.00    -0.272 OA
ATOM     11  N   UNL     1      10.763  21.781  38.010  1.00  0.00    -0.347 N 
ATOM     12  H   UNL     1      10.598  22.577  37.349  1.00  0.00     0.164 HD
BRANCH  11  13
ATOM     13  C   UNL     1      10.327  20.439  37.602  1.00  0.00     0.111 C 
ATOM     14  C   UNL     1       9.129  20.008  38.448  1.00  0.00     0.036 C 
BRANCH  13  15
ATOM     15  C   UNL     1       9.978  20.394  36.126  1.00  0.00    -0.007 A 
ATOM     16  C   UNL     1      10.632  21.201  35.177  1.00  0.00     0.011 A 
ATOM     17  C   UNL     1       8.893  19.610  35.694  1.00  0.00     0.119 A 
ATOM     18  C   UNL     1      10.225  21.186  33.840  1.00  0.00     0.049 A 
ATOM     19  N   UNL     1       8.506  19.623  34.391  1.00  0.00    -0.237 NA
ATOM     20  C   UNL     1       9.137  20.380  33.450  1.00  0.00     0.153 A 
BRANCH  20  21
ATOM     21  N   UNL     1       8.654  20.355  32.094  1.00  0.00    -0.220 N 
ATOM     22  C   UNL     1       9.378  20.480  30.959  1.00  0.00     0.156 A 
ATOM     23  N   UNL     1       7.368  20.218  31.788  1.00  0.00    -0.172 NA
ATOM     24  C   UNL     1       8.506  20.413  29.896  1.00  0.00     0.161 A 
ATOM     25  C   UNL     1       7.252  20.249  30.446  1.00  0.00     0.174 A 
ATOM     26  F   UNL     1       8.816  20.500  28.579  1.00  0.00    -0.204 F 
ENDBRANCH  20  21
ENDBRANCH  13  15
ENDBRANCH  11  13
ENDBRANCH   1   9
BRANCH   4  27
ATOM     27  C   UNL     1      13.963  26.781  41.485  1.00  0.00     0.134 A 
ATOM     28  N   UNL     1      15.270  27.159  41.426  1.00  0.00    -0.215 NA
ATOM     29  N   UNL     1      13.005  27.716  41.725  1.00  0.00    -0.238 NA
ATOM     30  C   UNL     1      15.647  28.450  41.614  1.00  0.00     0.135 A 
ATOM     31  C   UNL     1      13.330  29.019  41.938  1.00  0.00     0.043 A 
ATOM     32  C   UNL     1      14.672  29.415  41.889  1.00  0.00     0.070 A 
ATOM     33  C   UNL     1      12.254  30.016  42.215  1.00  0.00     0.067 C 
BRANCH  30  34
ATOM     34  N   UNL     1      17.043  28.780  41.595  1.00  0.00    -0.323 N 
ATOM     35  H   UNL     1      17.351  29.615  42.132  1.00  0.00     0.170 HD
BRANCH  34  36
ATOM     36  C   UNL     1      18.043  28.006  40.916  1.00  0.00     0.153 A 
ATOM     37  N   UNL     1      19.158  28.551  40.388  1.00  0.00    -0.158 NA
ATOM     38  C   UNL     1      18.072  26.624  40.787  1.00  0.00     0.071 A 
ATOM     39  N   UNL     1      19.892  27.557  39.910  1.00  0.00    -0.281 N 
ATOM     40  C   UNL     1      19.269  26.385  40.142  1.00  0.00     0.034 A 
ATOM     41  H   UNL     1      20.825  27.680  39.463  1.00  0.00     0.190 HD
ATOM     42  C   UNL     1      19.799  25.045  39.738  1.00  0.00     0.066 C 
ENDBRANCH  34  36
ENDBRANCH  30  34
ENDBRANCH   4  27
TORSDOF 8
ENDMDL
MODEL 6
REMARK VINA RESULT:    -8.833      8.377     12.881
REMARK INTER + INTRA:         -13.954
REMARK INTER:                 -12.868
REMARK INTRA:                  -1.086
REMARK UNBOUND:                -0.990
REMARK SMILES CO[C@]1(C(=O)N[C@@H](C)c2ccc(-n3cc(F)cn3)nc2)CC[C@H](c2nc(C)cc(Nc3cc(C)[nH]n3)n2)CC1
REMARK SMILES IDX 3 1 21 2 22 3 23 4 38 5 39 6 2 7 1 8 4 9 5 10 6 11 7 13 8 14
REMARK SMILES IDX 9 15 10 16 20 17 11 18 19 19 12 20 13 21 14 22 18 23 15 24
REMARK SMILES IDX 17 25 16 26 24 27 37 28 25 29 29 30 26 31 28 32 27 33 30 34
REMARK SMILES IDX 31 36 36 37 32 38 35 39 33 40 34 42
REMARK H PARENT 6 12 30 35 35 41
REMARK Flexibility Score: inf
ROOT
ATOM      1  C   UNL     1      22.900  23.800  38.612  1.00  0.00     0.146 C 
ATOM      2  C   UNL     1      22.756  24.494  37.222  1.00  0.00     0.046 C 
ATOM      3  C   UNL     1      23.473  23.701  36.123  1.00  0.00     0.015 C 
ATOM      4  C   UNL     1      24.968  23.527  36.449  1.00  0.00     0.058 C 
ATOM      5  C   UNL     1      25.164  22.899  37.848  1.00  0.00     0.015 C 
ATOM      6  C   UNL     1      24.411  23.690  38.929  1.00  0.00     0.046 C 
ENDROOT
BRANCH   1   7
ATOM      7  O   UNL     1      22.368  22.472  38.614  1.00  0.00    -0.368 OA
ATOM      8  C   UNL     1      20.984  22.411  38.320  1.00  0.00     0.196 C 
ENDBRANCH   1   7
BRANCH   1   9
ATOM      9  C   UNL     1      22.274  24.634  39.721  1.00  0.00     0.252 C 
ATOM     10  O   UNL     1      22.483  24.336  40.929  1.00  0.00    -0.272 OA
ATOM     11  N   UNL     1      21.392  25.724  39.394  1.00  0.00    -0.347 N 
ATOM     12  H   UNL     1      21.179  25.909  38.385  1.00  0.00     0.164 HD
BRANCH  11  13
ATOM     13  C   UNL     1      20.788  26.603  40.403  1.00  0.00     0.111 C 
ATOM     14  C   UNL     1      21.098  28.062  40.066  1.00  0.00     0.036 C 
BRANCH  13  15
ATOM     15  C   UNL     1      19.289  26.388  40.500  1.00  0.00    -0.007 A 
ATOM     16  C   UNL     1      18.727  25.119  40.736  1.00  0.00     0.011 A 
ATOM     17  C   UNL     1      18.416  27.460  40.236  1.00  0.00     0.119 A 
ATOM     18  C   UNL     1      17.340  24.953  40.738  1.00  0.00     0.049 A 
ATOM     19  N   UNL     1      17.070  27.270  40.229  1.00  0.00    -0.237 NA
ATOM     20  C   UNL     1      16.504  26.056  40.475  1.00  0.00     0.153 A 
BRANCH  20  21
ATOM     21  N   UNL     1      15.070  25.932  40.430  1.00  0.00    -0.220 N 
ATOM     22  C   UNL     1      14.198  26.076  41.454  1.00  0.00     0.156 A 
ATOM     23  N   UNL     1      14.406  25.628  39.320  1.00  0.00    -0.172 NA
ATOM     24  C   UNL     1      12.931  25.856  40.959  1.00  0.00     0.161 A 
ATOM     25  C   UNL     1      13.093  25.576  39.619  1.00  0.00     0.174 A 
ATOM     26  F   UNL     1      11.767  25.896  41.652  1.00  0.00    -0.204 F 
ENDBRANCH  20  21
ENDBRANCH  13  15
ENDBRANCH  11  13
ENDBRANCH   1   9
BRANCH   4  27
ATOM     27  C   UNL     1      25.615  22.693  35.374  1.00  0.00     0.134 A 
ATOM     28  N   UNL     1      25.595  21.334  35.452  1.00  0.00    -0.215 NA
ATOM     29  N   UNL     1      26.106  23.294  34.257  1.00  0.00    -0.238 NA
ATOM     30  C   UNL     1      26.066  20.556  34.443  1.00  0.00     0.135 A 
ATOM     31  C   UNL     1      26.606  22.562  33.227  1.00  0.00     0.043 A 
ATOM     32  C   UNL     1      26.599  21.164  33.301  1.00  0.00     0.070 A 
ATOM     33  C   UNL     1      27.154  23.254  32.022  1.00  0.00     0.067 C 
BRANCH  30  34
ATOM     34  N   UNL     1      26.068  19.130  34.604  1.00  0.00    -0.323 N 
ATOM     35  H   UNL     1      25.591  18.736  35.439  1.00  0.00     0.170 HD
BRANCH  34  36
ATOM     36  C   UNL     1      26.651  18.216  33.664  1.00  0.00     0.153 A 
ATOM     37  N   UNL     1      25.915  17.408  32.874  1.00  0.00    -0.158 NA
ATOM     38  C   UNL     1      28.000  18.092  33.359  1.00  0.00     0.071 A 
ATOM     39  N   UNL     1      26.756  16.759  32.083  1.00  0.00    -0.281 N 
ATOM     40  C   UNL     1      28.017  17.155  32.346  1.00  0.00     0.034 A 
ATOM     41  H   UNL     1      26.464  16.081  31.348  1.00  0.00     0.190 HD
ATOM     42  C   UNL     1      29.234  16.634  31.649  1.00  0.00     0.066 C 
ENDBRANCH  34  36
ENDBRANCH  30  34
ENDBRANCH   4  27
TORSDOF 8
ENDMDL
MODEL 7
REMARK VINA RESULT:    -8.545      1.404      3.979
REMARK INTER + INTRA:         -13.531
REMARK INTER:                 -12.258
REMARK INTRA:                  -1.273
REMARK UNBOUND:                -0.990
REMARK SMILES CO[C@]1(C(=O)N[C@@H](C)c2ccc(-n3cc(F)cn3)nc2)CC[C@H](c2nc(C)cc(Nc3cc(C)[nH]n3)n2)CC1
REMARK SMILES IDX 3 1 21 2 22 3 23 4 38 5 39 6 2 7 1 8 4 9 5 10 6 11 7 13 8 14
REMARK SMILES IDX 9 15 10 16 20 17 11 18 19 19 12 20 13 21 14 22 18 23 15 24
REMARK SMILES IDX 17 25 16 26 24 27 37 28 25 29 29 30 26 31 28 32 27 33 30 34
REMARK SMILES IDX 31 36 36 37 32 38 35 39 33 40 34 42
REMARK H PARENT 6 12 30 35 35 41
REMARK Flexibility Score: inf
ROOT
ATOM      1  C   UNL     1      11.234  23.090  39.782  1.00  0.00     0.146 C 
ATOM      2  C   UNL     1       9.982  23.047  38.852  1.00  0.00     0.046 C 
ATOM      3  C   UNL     1       9.697  21.622  38.361  1.00  0.00     0.015 C 
ATOM      4  C   UNL     1      10.908  21.043  37.607  1.00  0.00     0.058 C 
ATOM      5  C   UNL     1      12.191  21.122  38.466  1.00  0.00     0.015 C 
ATOM      6  C   UNL     1      12.439  22.550  38.975  1.00  0.00     0.046 C 
ENDROOT
BRANCH   1   7
ATOM      7  O   UNL     1      11.085  22.253  40.933  1.00  0.00    -0.368 OA
ATOM      8  C   UNL     1       9.938  22.548  41.708  1.00  0.00     0.196 C 
ENDBRANCH   1   7
BRANCH   1   9
ATOM      9  C   UNL     1      11.578  24.516  40.191  1.00  0.00     0.252 C 
ATOM     10  O   UNL     1      11.048  25.490  39.590  1.00  0.00    -0.272 OA
ATOM     11  N   UNL     1      12.555  24.754  41.221  1.00  0.00    -0.347 N 
ATOM     12  H   UNL     1      13.032  23.930  41.658  1.00  0.00     0.164 HD
BRANCH  11  13
ATOM     13  C   UNL     1      12.906  26.095  41.704  1.00  0.00     0.111 C 
ATOM     14  C   UNL     1      12.568  26.211  43.191  1.00  0.00     0.036 C 
BRANCH  13  15
ATOM     15  C   UNL     1      14.372  26.404  41.468  1.00  0.00    -0.007 A 
ATOM     16  C   UNL     1      14.940  27.648  41.803  1.00  0.00     0.011 A 
ATOM     17  C   UNL     1      15.178  25.471  40.789  1.00  0.00     0.119 A 
ATOM     18  C   UNL     1      16.275  27.919  41.495  1.00  0.00     0.049 A 
ATOM     19  N   UNL     1      16.470  25.764  40.486  1.00  0.00    -0.237 NA
ATOM     20  C   UNL     1      17.046  26.952  40.820  1.00  0.00     0.153 A 
BRANCH  20  21
ATOM     21  N   UNL     1      18.415  27.194  40.446  1.00  0.00    -0.220 N 
ATOM     22  C   UNL     1      19.325  26.288  40.020  1.00  0.00     0.156 A 
ATOM     23  N   UNL     1      18.977  28.396  40.497  1.00  0.00    -0.172 NA
ATOM     24  C   UNL     1      20.507  26.957  39.790  1.00  0.00     0.161 A 
ATOM     25  C   UNL     1      20.259  28.278  40.099  1.00  0.00     0.174 A 
ATOM     26  F   UNL     1      21.676  26.424  39.360  1.00  0.00    -0.204 F 
ENDBRANCH  20  21
ENDBRANCH  13  15
ENDBRANCH  11  13
ENDBRANCH   1   9
BRANCH   4  27
ATOM     27  C   UNL     1      10.604  19.625  37.198  1.00  0.00     0.134 A 
ATOM     28  N   UNL     1      11.257  18.584  37.784  1.00  0.00    -0.215 NA
ATOM     29  N   UNL     1       9.583  19.375  36.335  1.00  0.00    -0.238 NA
ATOM     30  C   UNL     1      10.923  17.295  37.521  1.00  0.00     0.135 A 
ATOM     31  C   UNL     1       9.220  18.103  36.023  1.00  0.00     0.043 A 
ATOM     32  C   UNL     1       9.891  17.026  36.614  1.00  0.00     0.070 A 
ATOM     33  C   UNL     1       8.105  17.865  35.059  1.00  0.00     0.067 C 
BRANCH  30  34
ATOM     34  N   UNL     1      11.682  16.239  38.127  1.00  0.00    -0.323 N 
ATOM     35  H   UNL     1      12.530  15.904  37.628  1.00  0.00     0.170 HD
BRANCH  34  36
ATOM     36  C   UNL     1      11.365  15.647  39.396  1.00  0.00     0.153 A 
ATOM     37  N   UNL     1      11.972  16.008  40.544  1.00  0.00    -0.158 NA
ATOM     38  C   UNL     1      10.361  14.722  39.649  1.00  0.00     0.071 A 
ATOM     39  N   UNL     1      11.395  15.329  41.524  1.00  0.00    -0.281 N 
ATOM     40  C   UNL     1      10.417  14.552  41.018  1.00  0.00     0.034 A 
ATOM     41  H   UNL     1      11.645  15.424  42.531  1.00  0.00     0.190 HD
ATOM     42  C   UNL     1       9.550  13.640  41.827  1.00  0.00     0.066 C 
ENDBRANCH  34  36
ENDBRANCH  30  34
ENDBRANCH   4  27
TORSDOF 8
ENDMDL
MODEL 8
REMARK VINA RESULT:    -8.533      3.523     11.426
REMARK INTER + INTRA:         -13.514
REMARK INTER:                 -13.071
REMARK INTRA:                  -0.443
REMARK UNBOUND:                -0.990
REMARK SMILES CO[C@]1(C(=O)N[C@@H](C)c2ccc(-n3cc(F)cn3)nc2)CC[C@H](c2nc(C)cc(Nc3cc(C)[nH]n3)n2)CC1
REMARK SMILES IDX 3 1 21 2 22 3 23 4 38 5 39 6 2 7 1 8 4 9 5 10 6 11 7 13 8 14
REMARK SMILES IDX 9 15 10 16 20 17 11 18 19 19 12 20 13 21 14 22 18 23 15 24
REMARK SMILES IDX 17 25 16 26 24 27 37 28 25 29 29 30 26 31 28 32 27 33 30 34
REMARK SMILES IDX 31 36 36 37 32 38 35 39 33 40 34 42
REMARK H PARENT 6 12 30 35 35 41
REMARK Flexibility Score: inf
ROOT
ATOM      1  C   UNL     1      12.296  21.641  39.327  1.00  0.00     0.146 C 
ATOM      2  C   UNL     1      13.384  22.447  38.553  1.00  0.00     0.046 C 
ATOM      3  C   UNL     1      13.757  23.738  39.293  1.00  0.00     0.015 C 
ATOM      4  C   UNL     1      12.522  24.633  39.506  1.00  0.00     0.058 C 
ATOM      5  C   UNL     1      11.388  23.857  40.215  1.00  0.00     0.015 C 
ATOM      6  C   UNL     1      11.053  22.552  39.477  1.00  0.00     0.046 C 
ENDROOT
BRANCH   1   7
ATOM      7  O   UNL     1      12.720  21.283  40.647  1.00  0.00    -0.368 OA
ATOM      8  C   UNL     1      11.797  20.460  41.338  1.00  0.00     0.196 C 
ENDBRANCH   1   7
BRANCH   1   9
ATOM      9  C   UNL     1      11.852  20.410  38.549  1.00  0.00     0.252 C 
ATOM     10  O   UNL     1      10.627  20.116  38.479  1.00  0.00    -0.272 OA
ATOM     11  N   UNL     1      12.833  19.546  37.948  1.00  0.00    -0.347 N 
ATOM     12  H   UNL     1      13.848  19.772  38.079  1.00  0.00     0.164 HD
BRANCH  11  13
ATOM     13  C   UNL     1      12.484  18.368  37.144  1.00  0.00     0.111 C 
ATOM     14  C   UNL     1      11.899  17.282  38.048  1.00  0.00     0.036 C 
BRANCH  13  15
ATOM     15  C   UNL     1      11.508  18.720  36.037  1.00  0.00    -0.007 A 
ATOM     16  C   UNL     1      10.177  18.263  36.038  1.00  0.00     0.011 A 
ATOM     17  C   UNL     1      11.963  19.432  34.912  1.00  0.00     0.119 A 
ATOM     18  C   UNL     1       9.336  18.545  34.959  1.00  0.00     0.049 A 
ATOM     19  N   UNL     1      11.129  19.680  33.867  1.00  0.00    -0.237 NA
ATOM     20  C   UNL     1       9.832  19.266  33.856  1.00  0.00     0.153 A 
BRANCH  20  21
ATOM     21  N   UNL     1       9.018  19.552  32.703  1.00  0.00    -0.220 N 
ATOM     22  C   UNL     1       7.926  18.875  32.277  1.00  0.00     0.156 A 
ATOM     23  N   UNL     1       9.270  20.556  31.870  1.00  0.00    -0.172 NA
ATOM     24  C   UNL     1       7.475  19.488  31.129  1.00  0.00     0.161 A 
ATOM     25  C   UNL     1       8.338  20.538  30.898  1.00  0.00     0.174 A 
ATOM     26  F   UNL     1       6.408  19.126  30.376  1.00  0.00    -0.204 F 
ENDBRANCH  20  21
ENDBRANCH  13  15
ENDBRANCH  11  13
ENDBRANCH   1   9
BRANCH   4  27
ATOM     27  C   UNL     1      12.926  25.856  40.286  1.00  0.00     0.134 A 
ATOM     28  N   UNL     1      14.196  25.982  40.759  1.00  0.00    -0.215 NA
ATOM     29  N   UNL     1      12.059  26.897  40.408  1.00  0.00    -0.238 NA
ATOM     30  C   UNL     1      14.622  27.122  41.364  1.00  0.00     0.135 A 
ATOM     31  C   UNL     1      12.428  28.053  41.020  1.00  0.00     0.043 A 
ATOM     32  C   UNL     1      13.729  28.189  41.518  1.00  0.00     0.070 A 
ATOM     33  C   UNL     1      11.445  29.169  41.151  1.00  0.00     0.067 C 
BRANCH  30  34
ATOM     34  N   UNL     1      15.955  27.177  41.890  1.00  0.00    -0.323 N 
ATOM     35  H   UNL     1      16.067  27.388  42.902  1.00  0.00     0.170 HD
BRANCH  34  36
ATOM     36  C   UNL     1      17.136  26.920  41.117  1.00  0.00     0.153 A 
ATOM     37  N   UNL     1      17.919  27.902  40.626  1.00  0.00    -0.158 NA
ATOM     38  C   UNL     1      17.693  25.677  40.848  1.00  0.00     0.071 A 
ATOM     39  N   UNL     1      18.953  27.322  40.036  1.00  0.00    -0.281 N 
ATOM     40  C   UNL     1      18.849  25.984  40.159  1.00  0.00     0.034 A 
ATOM     41  H   UNL     1      19.738  27.840  39.587  1.00  0.00     0.190 HD
ATOM     42  C   UNL     1      19.835  25.001  39.612  1.00  0.00     0.066 C 
ENDBRANCH  34  36
ENDBRANCH  30  34
ENDBRANCH   4  27
TORSDOF 8
ENDMDL
MODEL 9
REMARK VINA RESULT:    -8.515      6.451     11.342
REMARK INTER + INTRA:         -13.487
REMARK INTER:                 -13.084
REMARK INTRA:                  -0.403
REMARK UNBOUND:                -0.990
REMARK SMILES CO[C@]1(C(=O)N[C@@H](C)c2ccc(-n3cc(F)cn3)nc2)CC[C@H](c2nc(C)cc(Nc3cc(C)[nH]n3)n2)CC1
REMARK SMILES IDX 3 1 21 2 22 3 23 4 38 5 39 6 2 7 1 8 4 9 5 10 6 11 7 13 8 14
REMARK SMILES IDX 9 15 10 16 20 17 11 18 19 19 12 20 13 21 14 22 18 23 15 24
REMARK SMILES IDX 17 25 16 26 24 27 37 28 25 29 29 30 26 31 28 32 27 33 30 34
REMARK SMILES IDX 31 36 36 37 32 38 35 39 33 40 34 42
REMARK H PARENT 6 12 30 35 35 41
REMARK Flexibility Score: inf
ROOT
ATOM      1  C   UNL     1      19.659  25.754  39.858  1.00  0.00     0.146 C 
ATOM      2  C   UNL     1      19.029  24.885  40.990  1.00  0.00     0.046 C 
ATOM      3  C   UNL     1      17.499  25.001  40.999  1.00  0.00     0.015 C 
ATOM      4  C   UNL     1      17.055  26.465  41.178  1.00  0.00     0.058 C 
ATOM      5  C   UNL     1      17.706  27.379  40.115  1.00  0.00     0.015 C 
ATOM      6  C   UNL     1      19.234  27.222  40.100  1.00  0.00     0.046 C 
ENDROOT
BRANCH   1   7
ATOM      7  O   UNL     1      19.184  25.384  38.559  1.00  0.00    -0.368 OA
ATOM      8  C   UNL     1      20.108  24.613  37.813  1.00  0.00     0.196 C 
ENDBRANCH   1   7
BRANCH   1   9
ATOM      9  C   UNL     1      21.180  25.719  39.907  1.00  0.00     0.252 C 
ATOM     10  O   UNL     1      21.840  26.788  39.786  1.00  0.00    -0.272 OA
ATOM     11  N   UNL     1      21.869  24.461  40.026  1.00  0.00    -0.347 N 
ATOM     12  H   UNL     1      21.301  23.580  40.055  1.00  0.00     0.164 HD
BRANCH  11  13
ATOM     13  C   UNL     1      23.329  24.347  40.127  1.00  0.00     0.111 C 
ATOM     14  C   UNL     1      23.696  23.478  41.331  1.00  0.00     0.036 C 
BRANCH  13  15
ATOM     15  C   UNL     1      23.931  23.776  38.857  1.00  0.00    -0.007 A 
ATOM     16  C   UNL     1      25.205  23.178  38.834  1.00  0.00     0.011 A 
ATOM     17  C   UNL     1      23.256  23.941  37.634  1.00  0.00     0.119 A 
ATOM     18  C   UNL     1      25.754  22.737  37.628  1.00  0.00     0.049 A 
ATOM     19  N   UNL     1      23.818  23.517  36.471  1.00  0.00    -0.237 NA
ATOM     20  C   UNL     1      25.040  22.917  36.428  1.00  0.00     0.153 A 
BRANCH  20  21
ATOM     21  N   UNL     1      25.575  22.514  35.153  1.00  0.00    -0.220 N 
ATOM     22  C   UNL     1      26.070  21.302  34.814  1.00  0.00     0.156 A 
ATOM     23  N   UNL     1      25.666  23.337  34.115  1.00  0.00    -0.172 NA
ATOM     24  C   UNL     1      26.484  21.371  33.502  1.00  0.00     0.161 A 
ATOM     25  C   UNL     1      26.219  22.659  33.090  1.00  0.00     0.174 A 
ATOM     26  F   UNL     1      27.047  20.378  32.771  1.00  0.00    -0.204 F 
ENDBRANCH  20  21
ENDBRANCH  13  15
ENDBRANCH  11  13
ENDBRANCH   1   9
BRANCH   4  27
ATOM     27  C   UNL     1      15.552  26.535  41.122  1.00  0.00     0.134 A 
ATOM     28  N   UNL     1      14.897  27.642  41.569  1.00  0.00    -0.215 NA
ATOM     29  N   UNL     1      14.852  25.546  40.503  1.00  0.00    -0.238 NA
ATOM     30  C   UNL     1      13.554  27.782  41.425  1.00  0.00     0.135 A 
ATOM     31  C   UNL     1      13.504  25.628  40.349  1.00  0.00     0.043 A 
ATOM     32  C   UNL     1      12.820  26.758  40.814  1.00  0.00     0.070 A 
ATOM     33  C   UNL     1      12.764  24.517  39.681  1.00  0.00     0.067 C 
BRANCH  30  34
ATOM     34  N   UNL     1      12.911  28.946  41.963  1.00  0.00    -0.323 N 
ATOM     35  H   UNL     1      12.461  29.603  41.295  1.00  0.00     0.170 HD
BRANCH  34  36
ATOM     36  C   UNL     1      12.817  29.236  43.365  1.00  0.00     0.153 A 
ATOM     37  N   UNL     1      12.393  28.334  44.274  1.00  0.00    -0.158 NA
ATOM     38  C   UNL     1      13.222  30.404  43.997  1.00  0.00     0.071 A 
ATOM     39  N   UNL     1      12.500  28.897  45.468  1.00  0.00    -0.281 N 
ATOM     40  C   UNL     1      13.003  30.141  45.334  1.00  0.00     0.034 A 
ATOM     41  H   UNL     1      12.266  28.422  46.364  1.00  0.00     0.190 HD
ATOM     42  C   UNL     1      13.260  31.081  46.470  1.00  0.00     0.066 C 
ENDBRANCH  34  36
ENDBRANCH  30  34
ENDBRANCH   4  27
TORSDOF 8
ENDMDL
MODEL 10
REMARK VINA RESULT:    -8.448      2.988      5.524
REMARK INTER + INTRA:         -13.389
REMARK INTER:                 -13.314
REMARK INTRA:                  -0.075
REMARK UNBOUND:                -0.990
REMARK SMILES CO[C@]1(C(=O)N[C@@H](C)c2ccc(-n3cc(F)cn3)nc2)CC[C@H](c2nc(C)cc(Nc3cc(C)[nH]n3)n2)CC1
REMARK SMILES IDX 3 1 21 2 22 3 23 4 38 5 39 6 2 7 1 8 4 9 5 10 6 11 7 13 8 14
REMARK SMILES IDX 9 15 10 16 20 17 11 18 19 19 12 20 13 21 14 22 18 23 15 24
REMARK SMILES IDX 17 25 16 26 24 27 37 28 25 29 29 30 26 31 28 32 27 33 30 34
REMARK SMILES IDX 31 36 36 37 32 38 35 39 33 40 34 42
REMARK H PARENT 6 12 30 35 35 41
REMARK Flexibility Score: inf
ROOT
ATOM      1  C   UNL     1      14.058  26.592  41.142  1.00  0.00     0.146 C 
ATOM      2  C   UNL     1      12.795  27.484  40.937  1.00  0.00     0.046 C 
ATOM      3  C   UNL     1      11.527  26.634  40.784  1.00  0.00     0.015 C 
ATOM      4  C   UNL     1      11.655  25.657  39.600  1.00  0.00     0.058 C 
ATOM      5  C   UNL     1      12.930  24.792  39.725  1.00  0.00     0.015 C 
ATOM      6  C   UNL     1      14.182  25.662  39.912  1.00  0.00     0.046 C 
ENDROOT
BRANCH   1   7
ATOM      7  O   UNL     1      13.951  25.754  42.298  1.00  0.00    -0.368 OA
ATOM      8  C   UNL     1      12.997  26.206  43.243  1.00  0.00     0.196 C 
ENDBRANCH   1   7
BRANCH   1   9
ATOM      9  C   UNL     1      15.330  27.428  41.197  1.00  0.00     0.252 C 
ATOM     10  O   UNL     1      15.316  28.563  41.746  1.00  0.00    -0.272 OA
ATOM     11  N   UNL     1      16.533  26.951  40.566  1.00  0.00    -0.347 N 
ATOM     12  H   UNL     1      16.502  26.036  40.056  1.00  0.00     0.164 HD
BRANCH  11  13
ATOM     13  C   UNL     1      17.809  27.675  40.614  1.00  0.00     0.111 C 
ATOM     14  C   UNL     1      18.080  28.144  42.044  1.00  0.00     0.036 C 
BRANCH  13  15
ATOM     15  C   UNL     1      18.954  26.815  40.113  1.00  0.00    -0.007 A 
ATOM     16  C   UNL     1      18.858  25.413  40.029  1.00  0.00     0.011 A 
ATOM     17  C   UNL     1      20.196  27.411  39.826  1.00  0.00     0.119 A 
ATOM     18  C   UNL     1      19.964  24.654  39.637  1.00  0.00     0.049 A 
ATOM     19  N   UNL     1      21.262  26.650  39.462  1.00  0.00    -0.237 NA
ATOM     20  C   UNL     1      21.186  25.294  39.353  1.00  0.00     0.153 A 
BRANCH  20  21
ATOM     21  N   UNL     1      22.365  24.556  38.982  1.00  0.00    -0.220 N 
ATOM     22  C   UNL     1      23.077  23.700  39.749  1.00  0.00     0.156 A 
ATOM     23  N   UNL     1      22.930  24.652  37.783  1.00  0.00    -0.172 NA
ATOM     24  C   UNL     1      24.131  23.236  38.993  1.00  0.00     0.161 A 
ATOM     25  C   UNL     1      24.013  23.852  37.765  1.00  0.00     0.174 A 
ATOM     26  F   UNL     1      25.092  22.363  39.382  1.00  0.00    -0.204 F 
ENDBRANCH  20  21
ENDBRANCH  13  15
ENDBRANCH  11  13
ENDBRANCH   1   9
BRANCH   4  27
ATOM     27  C   UNL     1      10.415  24.806  39.526  1.00  0.00     0.134 A 
ATOM     28  N   UNL     1      10.311  23.820  38.593  1.00  0.00    -0.215 NA
ATOM     29  N   UNL     1       9.450  24.934  40.477  1.00  0.00    -0.238 NA
ATOM     30  C   UNL     1       9.258  22.963  38.576  1.00  0.00     0.135 A 
ATOM     31  C   UNL     1       8.366  24.114  40.495  1.00  0.00     0.043 A 
ATOM     32  C   UNL     1       8.246  23.103  39.533  1.00  0.00     0.070 A 
ATOM     33  C   UNL     1       7.317  24.293  41.542  1.00  0.00     0.067 C 
BRANCH  30  34
ATOM     34  N   UNL     1       9.175  21.978  37.537  1.00  0.00    -0.323 N 
ATOM     35  H   UNL     1       8.264  21.866  37.048  1.00  0.00     0.170 HD
BRANCH  34  36
ATOM     36  C   UNL     1      10.279  21.171  37.104  1.00  0.00     0.153 A 
ATOM     37  N   UNL     1      11.191  21.597  36.206  1.00  0.00    -0.158 NA
ATOM     38  C   UNL     1      10.628  19.918  37.590  1.00  0.00     0.071 A 
ATOM     39  N   UNL     1      12.105  20.645  36.092  1.00  0.00    -0.281 N 
ATOM     40  C   UNL     1      11.798  19.625  36.918  1.00  0.00     0.034 A 
ATOM     41  H   UNL     1      12.947  20.711  35.483  1.00  0.00     0.190 HD
ATOM     42  C   UNL     1      12.602  18.371  37.058  1.00  0.00     0.066 C 
ENDBRANCH  34  36
ENDBRANCH  30  34
ENDBRANCH   4  27
TORSDOF 8
ENDMDL
MODEL 11
REMARK VINA RESULT:    -8.338      3.864     11.380
REMARK INTER + INTRA:         -13.227
REMARK INTER:                 -11.912
REMARK INTRA:                  -1.315
REMARK UNBOUND:                -0.990
REMARK SMILES CO[C@]1(C(=O)N[C@@H](C)c2ccc(-n3cc(F)cn3)nc2)CC[C@H](c2nc(C)cc(Nc3cc(C)[nH]n3)n2)CC1
REMARK SMILES IDX 3 1 21 2 22 3 23 4 38 5 39 6 2 7 1 8 4 9 5 10 6 11 7 13 8 14
REMARK SMILES IDX 9 15 10 16 20 17 11 18 19 19 12 20 13 21 14 22 18 23 15 24
REMARK SMILES IDX 17 25 16 26 24 27 37 28 25 29 29 30 26 31 28 32 27 33 30 34
REMARK SMILES IDX 31 36 36 37 32 38 35 39 33 40 34 42
REMARK H PARENT 6 12 30 35 35 41
REMARK Flexibility Score: inf
ROOT
ATOM      1  C   UNL     1      12.144  20.289  38.707  1.00  0.00     0.146 C 
ATOM      2  C   UNL     1      13.639  20.694  38.524  1.00  0.00     0.046 C 
ATOM      3  C   UNL     1      13.969  21.982  39.289  1.00  0.00     0.015 C 
ATOM      4  C   UNL     1      13.070  23.145  38.829  1.00  0.00     0.058 C 
ATOM      5  C   UNL     1      11.574  22.769  38.932  1.00  0.00     0.015 C 
ATOM      6  C   UNL     1      11.273  21.458  38.187  1.00  0.00     0.046 C 
ENDROOT
BRANCH   1   7
ATOM      7  O   UNL     1      11.800  20.083  40.081  1.00  0.00    -0.368 OA
ATOM      8  C   UNL     1      12.419  18.947  40.658  1.00  0.00     0.196 C 
ENDBRANCH   1   7
BRANCH   1   9
ATOM      9  C   UNL     1      11.789  19.067  37.871  1.00  0.00     0.252 C 
ATOM     10  O   UNL     1      12.703  18.378  37.341  1.00  0.00    -0.272 OA
ATOM     11  N   UNL     1      10.409  18.734  37.631  1.00  0.00    -0.347 N 
ATOM     12  H   UNL     1       9.667  19.361  38.024  1.00  0.00     0.164 HD
BRANCH  11  13
ATOM     13  C   UNL     1       9.986  17.547  36.877  1.00  0.00     0.111 C 
ATOM     14  C   UNL     1       9.048  16.699  37.736  1.00  0.00     0.036 C 
BRANCH  13  15
ATOM     15  C   UNL     1       9.311  17.930  35.573  1.00  0.00    -0.007 A 
ATOM     16  C   UNL     1       8.233  17.195  35.044  1.00  0.00     0.011 A 
ATOM     17  C   UNL     1       9.838  18.981  34.801  1.00  0.00     0.119 A 
ATOM     18  C   UNL     1       7.693  17.535  33.801  1.00  0.00     0.049 A 
ATOM     19  N   UNL     1       9.305  19.283  33.588  1.00  0.00    -0.237 NA
ATOM     20  C   UNL     1       8.249  18.600  33.065  1.00  0.00     0.153 A 
BRANCH  20  21
ATOM     21  N   UNL     1       7.754  18.967  31.764  1.00  0.00    -0.220 N 
ATOM     22  C   UNL     1       8.089  20.055  31.032  1.00  0.00     0.156 A 
ATOM     23  N   UNL     1       6.849  18.252  31.106  1.00  0.00    -0.172 NA
ATOM     24  C   UNL     1       7.364  20.013  29.862  1.00  0.00     0.161 A 
ATOM     25  C   UNL     1       6.594  18.871  29.937  1.00  0.00     0.174 A 
ATOM     26  F   UNL     1       7.393  20.915  28.851  1.00  0.00    -0.204 F 
ENDBRANCH  20  21
ENDBRANCH  13  15
ENDBRANCH  11  13
ENDBRANCH   1   9
BRANCH   4  27
ATOM     27  C   UNL     1      13.388  24.369  39.648  1.00  0.00     0.134 A 
ATOM     28  N   UNL     1      12.388  25.094  40.220  1.00  0.00    -0.215 NA
ATOM     29  N   UNL     1      14.684  24.678  39.925  1.00  0.00    -0.238 NA
ATOM     30  C   UNL     1      12.649  26.132  41.056  1.00  0.00     0.135 A 
ATOM     31  C   UNL     1      15.000  25.718  40.742  1.00  0.00     0.043 A 
ATOM     32  C   UNL     1      13.979  26.475  41.327  1.00  0.00     0.070 A 
ATOM     33  C   UNL     1      16.433  26.040  41.012  1.00  0.00     0.067 C 
BRANCH  30  34
ATOM     34  N   UNL     1      11.555  26.893  41.587  1.00  0.00    -0.323 N 
ATOM     35  H   UNL     1      11.328  26.776  42.595  1.00  0.00     0.170 HD
BRANCH  34  36
ATOM     36  C   UNL     1      10.785  27.833  40.824  1.00  0.00     0.153 A 
ATOM     37  N   UNL     1      10.908  29.169  40.968  1.00  0.00    -0.158 NA
ATOM     38  C   UNL     1       9.903  27.537  39.794  1.00  0.00     0.071 A 
ATOM     39  N   UNL     1      10.117  29.735  40.069  1.00  0.00    -0.281 N 
ATOM     40  C   UNL     1       9.505  28.779  39.342  1.00  0.00     0.034 A 
ATOM     41  H   UNL     1      10.027  30.764  39.932  1.00  0.00     0.190 HD
ATOM     42  C   UNL     1       8.534  29.043  38.235  1.00  0.00     0.066 C 
ENDBRANCH  34  36
ENDBRANCH  30  34
ENDBRANCH   4  27
TORSDOF 8
ENDMDL
MODEL 12
REMARK VINA RESULT:    -8.305      8.603     13.235
REMARK INTER + INTRA:         -13.179
REMARK INTER:                 -12.137
REMARK INTRA:                  -1.042
REMARK UNBOUND:                -0.990
REMARK SMILES CO[C@]1(C(=O)N[C@@H](C)c2ccc(-n3cc(F)cn3)nc2)CC[C@H](c2nc(C)cc(Nc3cc(C)[nH]n3)n2)CC1
REMARK SMILES IDX 3 1 21 2 22 3 23 4 38 5 39 6 2 7 1 8 4 9 5 10 6 11 7 13 8 14
REMARK SMILES IDX 9 15 10 16 20 17 11 18 19 19 12 20 13 21 14 22 18 23 15 24
REMARK SMILES IDX 17 25 16 26 24 27 37 28 25 29 29 30 26 31 28 32 27 33 30 34
REMARK SMILES IDX 31 36 36 37 32 38 35 39 33 40 34 42
REMARK H PARENT 6 12 30 35 35 41
REMARK Flexibility Score: inf
ROOT
ATOM      1  C   UNL     1      23.026  23.676  38.433  1.00  0.00     0.146 C 
ATOM      2  C   UNL     1      22.945  24.392  37.049  1.00  0.00     0.046 C 
ATOM      3  C   UNL     1      23.579  23.542  35.941  1.00  0.00     0.015 C 
ATOM      4  C   UNL     1      25.052  23.224  36.260  1.00  0.00     0.058 C 
ATOM      5  C   UNL     1      25.191  22.569  37.653  1.00  0.00     0.015 C 
ATOM      6  C   UNL     1      24.520  23.419  38.743  1.00  0.00     0.046 C 
ENDROOT
BRANCH   1   7
ATOM      7  O   UNL     1      22.370  22.404  38.427  1.00  0.00    -0.368 OA
ATOM      8  C   UNL     1      20.969  22.486  38.232  1.00  0.00     0.196 C 
ENDBRANCH   1   7
BRANCH   1   9
ATOM      9  C   UNL     1      22.487  24.557  39.551  1.00  0.00     0.252 C 
ATOM     10  O   UNL     1      22.772  24.297  40.752  1.00  0.00    -0.272 OA
ATOM     11  N   UNL     1      21.599  25.648  39.244  1.00  0.00    -0.347 N 
ATOM     12  H   UNL     1      21.321  25.802  38.246  1.00  0.00     0.164 HD
BRANCH  11  13
ATOM     13  C   UNL     1      21.074  26.570  40.259  1.00  0.00     0.111 C 
ATOM     14  C   UNL     1      21.371  28.012  39.847  1.00  0.00     0.036 C 
BRANCH  13  15
ATOM     15  C   UNL     1      19.585  26.375  40.471  1.00  0.00    -0.007 A 
ATOM     16  C   UNL     1      19.000  25.096  40.546  1.00  0.00     0.011 A 
ATOM     17  C   UNL     1      18.733  27.494  40.481  1.00  0.00     0.119 A 
ATOM     18  C   UNL     1      17.614  24.962  40.661  1.00  0.00     0.049 A 
ATOM     19  N   UNL     1      17.386  27.337  40.579  1.00  0.00    -0.237 NA
ATOM     20  C   UNL     1      16.800  26.111  40.674  1.00  0.00     0.153 A 
BRANCH  20  21
ATOM     21  N   UNL     1      15.364  26.028  40.754  1.00  0.00    -0.220 N 
ATOM     22  C   UNL     1      14.554  25.152  40.118  1.00  0.00     0.156 A 
ATOM     23  N   UNL     1      14.632  26.859  41.487  1.00  0.00    -0.172 NA
ATOM     24  C   UNL     1      13.256  25.447  40.475  1.00  0.00     0.161 A 
ATOM     25  C   UNL     1      13.336  26.523  41.333  1.00  0.00     0.174 A 
ATOM     26  F   UNL     1      12.132  24.816  40.057  1.00  0.00    -0.204 F 
ENDBRANCH  20  21
ENDBRANCH  13  15
ENDBRANCH  11  13
ENDBRANCH   1   9
BRANCH   4  27
ATOM     27  C   UNL     1      25.612  22.341  35.176  1.00  0.00     0.134 A 
ATOM     28  N   UNL     1      26.377  22.872  34.182  1.00  0.00    -0.215 NA
ATOM     29  N   UNL     1      25.464  20.991  35.259  1.00  0.00    -0.238 NA
ATOM     30  C   UNL     1      26.991  22.087  33.259  1.00  0.00     0.135 A 
ATOM     31  C   UNL     1      26.041  20.162  34.351  1.00  0.00     0.043 A 
ATOM     32  C   UNL     1      26.822  20.698  33.320  1.00  0.00     0.070 A 
ATOM     33  C   UNL     1      25.844  18.686  34.463  1.00  0.00     0.067 C 
BRANCH  30  34
ATOM     34  N   UNL     1      27.740  22.705  32.204  1.00  0.00    -0.323 N 
ATOM     35  H   UNL     1      28.035  23.694  32.335  1.00  0.00     0.170 HD
BRANCH  34  36
ATOM     36  C   UNL     1      28.141  22.033  31.002  1.00  0.00     0.153 A 
ATOM     37  N   UNL     1      27.634  22.336  29.789  1.00  0.00    -0.158 NA
ATOM     38  C   UNL     1      29.140  21.077  30.883  1.00  0.00     0.071 A 
ATOM     39  N   UNL     1      28.271  21.589  28.899  1.00  0.00    -0.281 N 
ATOM     40  C   UNL     1      29.188  20.826  29.527  1.00  0.00     0.034 A 
ATOM     41  H   UNL     1      28.102  21.629  27.872  1.00  0.00     0.190 HD
ATOM     42  C   UNL     1      30.095  19.852  28.843  1.00  0.00     0.066 C 
ENDBRANCH  34  36
ENDBRANCH  30  34
ENDBRANCH   4  27
TORSDOF 8
ENDMDL
MODEL 13
REMARK VINA RESULT:    -8.270      2.626      4.233
REMARK INTER + INTRA:         -13.128
REMARK INTER:                 -12.835
REMARK INTRA:                  -0.294
REMARK UNBOUND:                -0.990
REMARK SMILES CO[C@]1(C(=O)N[C@@H](C)c2ccc(-n3cc(F)cn3)nc2)CC[C@H](c2nc(C)cc(Nc3cc(C)[nH]n3)n2)CC1
REMARK SMILES IDX 3 1 21 2 22 3 23 4 38 5 39 6 2 7 1 8 4 9 5 10 6 11 7 13 8 14
REMARK SMILES IDX 9 15 10 16 20 17 11 18 19 19 12 20 13 21 14 22 18 23 15 24
REMARK SMILES IDX 17 25 16 26 24 27 37 28 25 29 29 30 26 31 28 32 27 33 30 34
REMARK SMILES IDX 31 36 36 37 32 38 35 39 33 40 34 42
REMARK H PARENT 6 12 30 35 35 41
REMARK Flexibility Score: inf
ROOT
ATOM      1  C   UNL     1      13.069  26.180  40.979  1.00  0.00     0.146 C 
ATOM      2  C   UNL     1      11.713  26.824  40.553  1.00  0.00     0.046 C 
ATOM      3  C   UNL     1      10.628  25.761  40.345  1.00  0.00     0.015 C 
ATOM      4  C   UNL     1      11.055  24.732  39.281  1.00  0.00     0.058 C 
ATOM      5  C   UNL     1      12.427  24.110  39.627  1.00  0.00     0.015 C 
ATOM      6  C   UNL     1      13.491  25.193  39.864  1.00  0.00     0.046 C 
ENDROOT
BRANCH   1   7
ATOM      7  O   UNL     1      12.956  25.426  42.191  1.00  0.00    -0.368 OA
ATOM      8  C   UNL     1      12.390  26.156  43.265  1.00  0.00     0.196 C 
ENDBRANCH   1   7
BRANCH   1   9
ATOM      9  C   UNL     1      14.173  27.222  41.091  1.00  0.00     0.252 C 
ATOM     10  O   UNL     1      13.898  28.395  41.463  1.00  0.00    -0.272 OA
ATOM     11  N   UNL     1      15.520  26.887  40.710  1.00  0.00    -0.347 N 
ATOM     12  H   UNL     1      15.712  25.927  40.338  1.00  0.00     0.164 HD
BRANCH  11  13
ATOM     13  C   UNL     1      16.648  27.820  40.834  1.00  0.00     0.111 C 
ATOM     14  C   UNL     1      16.665  28.423  42.239  1.00  0.00     0.036 C 
BRANCH  13  15
ATOM     15  C   UNL     1      17.969  27.138  40.532  1.00  0.00    -0.007 A 
ATOM     16  C   UNL     1      19.154  27.864  40.311  1.00  0.00     0.011 A 
ATOM     17  C   UNL     1      18.004  25.743  40.352  1.00  0.00     0.119 A 
ATOM     18  C   UNL     1      20.331  27.200  39.958  1.00  0.00     0.049 A 
ATOM     19  N   UNL     1      19.158  25.121  39.993  1.00  0.00    -0.237 NA
ATOM     20  C   UNL     1      20.322  25.801  39.795  1.00  0.00     0.153 A 
BRANCH  20  21
ATOM     21  N   UNL     1      21.497  25.071  39.396  1.00  0.00    -0.220 N 
ATOM     22  C   UNL     1      22.172  25.171  38.228  1.00  0.00     0.156 A 
ATOM     23  N   UNL     1      22.074  24.154  40.164  1.00  0.00    -0.172 NA
ATOM     24  C   UNL     1      23.220  24.279  38.272  1.00  0.00     0.161 A 
ATOM     25  C   UNL     1      23.133  23.654  39.497  1.00  0.00     0.174 A 
ATOM     26  F   UNL     1      24.141  24.054  37.303  1.00  0.00    -0.204 F 
ENDBRANCH  20  21
ENDBRANCH  13  15
ENDBRANCH  11  13
ENDBRANCH   1   9
BRANCH   4  27
ATOM     27  C   UNL     1       9.987  23.678  39.156  1.00  0.00     0.134 A 
ATOM     28  N   UNL     1      10.113  22.676  38.243  1.00  0.00    -0.215 NA
ATOM     29  N   UNL     1       8.956  23.651  40.043  1.00  0.00    -0.238 NA
ATOM     30  C   UNL     1       9.226  21.649  38.185  1.00  0.00     0.135 A 
ATOM     31  C   UNL     1       8.031  22.657  40.017  1.00  0.00     0.043 A 
ATOM     32  C   UNL     1       8.146  21.626  39.076  1.00  0.00     0.070 A 
ATOM     33  C   UNL     1       6.903  22.667  40.995  1.00  0.00     0.067 C 
BRANCH  30  34
ATOM     34  N   UNL     1       9.379  20.650  37.168  1.00  0.00    -0.323 N 
ATOM     35  H   UNL     1       9.335  19.653  37.458  1.00  0.00     0.170 HD
BRANCH  34  36
ATOM     36  C   UNL     1       9.547  20.942  35.773  1.00  0.00     0.153 A 
ATOM     37  N   UNL     1      10.379  21.901  35.320  1.00  0.00    -0.158 NA
ATOM     38  C   UNL     1       8.982  20.250  34.710  1.00  0.00     0.071 A 
ATOM     39  N   UNL     1      10.351  21.853  33.996  1.00  0.00    -0.281 N 
ATOM     40  C   UNL     1       9.525  20.865  33.599  1.00  0.00     0.034 A 
ATOM     41  H   UNL     1      10.919  22.467  33.375  1.00  0.00     0.190 HD
ATOM     42  C   UNL     1       9.240  20.516  32.173  1.00  0.00     0.066 C 
ENDBRANCH  34  36
ENDBRANCH  30  34
ENDBRANCH   4  27
TORSDOF 8
ENDMDL
MODEL 14
REMARK VINA RESULT:    -8.007      4.680     11.271
REMARK INTER + INTRA:         -12.741
REMARK INTER:                 -11.638
REMARK INTRA:                  -1.103
REMARK UNBOUND:                -0.990
REMARK SMILES CO[C@]1(C(=O)N[C@@H](C)c2ccc(-n3cc(F)cn3)nc2)CC[C@H](c2nc(C)cc(Nc3cc(C)[nH]n3)n2)CC1
REMARK SMILES IDX 3 1 21 2 22 3 23 4 38 5 39 6 2 7 1 8 4 9 5 10 6 11 7 13 8 14
REMARK SMILES IDX 9 15 10 16 20 17 11 18 19 19 12 20 13 21 14 22 18 23 15 24
REMARK SMILES IDX 17 25 16 26 24 27 37 28 25 29 29 30 26 31 28 32 27 33 30 34
REMARK SMILES IDX 31 36 36 37 32 38 35 39 33 40 34 42
REMARK H PARENT 6 12 30 35 35 41
REMARK Flexibility Score: inf
ROOT
ATOM      1  C   UNL     1      13.039  25.561  40.084  1.00  0.00     0.146 C 
ATOM      2  C   UNL     1      12.115  25.014  41.216  1.00  0.00     0.046 C 
ATOM      3  C   UNL     1      11.631  26.140  42.138  1.00  0.00     0.015 C 
ATOM      4  C   UNL     1      12.819  26.888  42.772  1.00  0.00     0.058 C 
ATOM      5  C   UNL     1      13.799  27.396  41.690  1.00  0.00     0.015 C 
ATOM      6  C   UNL     1      14.245  26.259  40.757  1.00  0.00     0.046 C 
ENDROOT
BRANCH   1   7
ATOM      7  O   UNL     1      12.382  26.540  39.272  1.00  0.00    -0.368 OA
ATOM      8  C   UNL     1      11.028  26.232  38.992  1.00  0.00     0.196 C 
ENDBRANCH   1   7
BRANCH   1   9
ATOM      9  C   UNL     1      13.600  24.436  39.227  1.00  0.00     0.252 C 
ATOM     10  O   UNL     1      14.181  24.701  38.139  1.00  0.00    -0.272 OA
ATOM     11  N   UNL     1      13.412  23.065  39.623  1.00  0.00    -0.347 N 
ATOM     12  H   UNL     1      12.866  22.867  40.495  1.00  0.00     0.164 HD
BRANCH  11  13
ATOM     13  C   UNL     1      13.962  21.927  38.876  1.00  0.00     0.111 C 
ATOM     14  C   UNL     1      14.125  20.728  39.812  1.00  0.00     0.036 C 
BRANCH  13  15
ATOM     15  C   UNL     1      13.084  21.562  37.694  1.00  0.00    -0.007 A 
ATOM     16  C   UNL     1      13.609  21.370  36.402  1.00  0.00     0.011 A 
ATOM     17  C   UNL     1      11.687  21.521  37.854  1.00  0.00     0.119 A 
ATOM     18  C   UNL     1      12.755  21.114  35.327  1.00  0.00     0.049 A 
ATOM     19  N   UNL     1      10.875  21.285  36.789  1.00  0.00    -0.237 NA
ATOM     20  C   UNL     1      11.362  21.076  35.534  1.00  0.00     0.153 A 
BRANCH  20  21
ATOM     21  N   UNL     1      10.436  20.852  34.455  1.00  0.00    -0.220 N 
ATOM     22  C   UNL     1      10.143  19.677  33.851  1.00  0.00     0.156 A 
ATOM     23  N   UNL     1       9.740  21.829  33.885  1.00  0.00    -0.172 NA
ATOM     24  C   UNL     1       9.218  19.934  32.863  1.00  0.00     0.161 A 
ATOM     25  C   UNL     1       8.985  21.292  32.907  1.00  0.00     0.174 A 
ATOM     26  F   UNL     1       8.660  19.036  32.015  1.00  0.00    -0.204 F 
ENDBRANCH  20  21
ENDBRANCH  13  15
ENDBRANCH  11  13
ENDBRANCH   1   9
BRANCH   4  27
ATOM     27  C   UNL     1      12.296  28.018  43.619  1.00  0.00     0.134 A 
ATOM     28  N   UNL     1      12.122  29.257  43.081  1.00  0.00    -0.215 NA
ATOM     29  N   UNL     1      11.874  27.773  44.888  1.00  0.00    -0.238 NA
ATOM     30  C   UNL     1      11.545  30.265  43.786  1.00  0.00     0.135 A 
ATOM     31  C   UNL     1      11.307  28.750  45.643  1.00  0.00     0.043 A 
ATOM     32  C   UNL     1      11.131  30.030  45.103  1.00  0.00     0.070 A 
ATOM     33  C   UNL     1      10.870  28.450  47.039  1.00  0.00     0.067 C 
BRANCH  30  34
ATOM     34  N   UNL     1      11.436  31.563  43.187  1.00  0.00    -0.323 N 
ATOM     35  H   UNL     1      12.128  32.286  43.468  1.00  0.00     0.170 HD
BRANCH  34  36
ATOM     36  C   UNL     1      10.459  31.912  42.196  1.00  0.00     0.153 A 
ATOM     37  N   UNL     1       9.480  32.814  42.417  1.00  0.00    -0.158 NA
ATOM     38  C   UNL     1      10.424  31.474  40.879  1.00  0.00     0.071 A 
ATOM     39  N   UNL     1       8.810  32.953  41.282  1.00  0.00    -0.281 N 
ATOM     40  C   UNL     1       9.359  32.165  40.336  1.00  0.00     0.034 A 
ATOM     41  H   UNL     1       8.010  33.607  41.150  1.00  0.00     0.190 HD
ATOM     42  C   UNL     1       8.865  32.057  38.928  1.00  0.00     0.066 C 
ENDBRANCH  34  36
ENDBRANCH  30  34
ENDBRANCH   4  27
TORSDOF 8
ENDMDL
MODEL 15
REMARK VINA RESULT:    -7.888      3.904     11.547
REMARK INTER + INTRA:         -12.566
REMARK INTER:                 -11.484
REMARK INTRA:                  -1.082
REMARK UNBOUND:                -0.990
REMARK SMILES CO[C@]1(C(=O)N[C@@H](C)c2ccc(-n3cc(F)cn3)nc2)CC[C@H](c2nc(C)cc(Nc3cc(C)[nH]n3)n2)CC1
REMARK SMILES IDX 3 1 21 2 22 3 23 4 38 5 39 6 2 7 1 8 4 9 5 10 6 11 7 13 8 14
REMARK SMILES IDX 9 15 10 16 20 17 11 18 19 19 12 20 13 21 14 22 18 23 15 24
REMARK SMILES IDX 17 25 16 26 24 27 37 28 25 29 29 30 26 31 28 32 27 33 30 34
REMARK SMILES IDX 31 36 36 37 32 38 35 39 33 40 34 42
REMARK H PARENT 6 12 30 35 35 41
REMARK Flexibility Score: inf
ROOT
ATOM      1  C   UNL     1      12.422  20.360  38.030  1.00  0.00     0.146 C 
ATOM      2  C   UNL     1      13.369  21.356  37.292  1.00  0.00     0.046 C 
ATOM      3  C   UNL     1      13.824  22.490  38.220  1.00  0.00     0.015 C 
ATOM      4  C   UNL     1      12.617  23.263  38.783  1.00  0.00     0.058 C 
ATOM      5  C   UNL     1      11.615  22.309  39.471  1.00  0.00     0.015 C 
ATOM      6  C   UNL     1      11.199  21.162  38.536  1.00  0.00     0.046 C 
ENDROOT
BRANCH   1   7
ATOM      7  O   UNL     1      13.042  19.767  39.175  1.00  0.00    -0.368 OA
ATOM      8  C   UNL     1      14.226  19.050  38.875  1.00  0.00     0.196 C 
ENDBRANCH   1   7
BRANCH   1   9
ATOM      9  C   UNL     1      11.891  19.290  37.087  1.00  0.00     0.252 C 
ATOM     10  O   UNL     1      12.684  18.665  36.331  1.00  0.00    -0.272 OA
ATOM     11  N   UNL     1      10.476  19.035  37.010  1.00  0.00    -0.347 N 
ATOM     12  H   UNL     1       9.830  19.615  37.596  1.00  0.00     0.164 HD
BRANCH  11  13
ATOM     13  C   UNL     1       9.891  17.989  36.161  1.00  0.00     0.111 C 
ATOM     14  C   UNL     1       8.826  17.224  36.949  1.00  0.00     0.036 C 
BRANCH  13  15
ATOM     15  C   UNL     1       9.297  18.571  34.893  1.00  0.00    -0.007 A 
ATOM     16  C   UNL     1       7.914  18.545  34.632  1.00  0.00     0.011 A 
ATOM     17  C   UNL     1      10.151  19.052  33.884  1.00  0.00     0.119 A 
ATOM     18  C   UNL     1       7.418  19.020  33.416  1.00  0.00     0.049 A 
ATOM     19  N   UNL     1       9.646  19.495  32.702  1.00  0.00    -0.237 NA
ATOM     20  C   UNL     1       8.310  19.499  32.437  1.00  0.00     0.153 A 
BRANCH  20  21
ATOM     21  N   UNL     1       7.854  19.966  31.153  1.00  0.00    -0.220 N 
ATOM     22  C   UNL     1       8.607  20.249  30.065  1.00  0.00     0.156 A 
ATOM     23  N   UNL     1       6.576  20.202  30.881  1.00  0.00    -0.172 NA
ATOM     24  C   UNL     1       7.758  20.676  29.068  1.00  0.00     0.161 A 
ATOM     25  C   UNL     1       6.491  20.637  29.609  1.00  0.00     0.174 A 
ATOM     26  F   UNL     1       8.101  21.065  27.816  1.00  0.00    -0.204 F 
ENDBRANCH  20  21
ENDBRANCH  13  15
ENDBRANCH  11  13
ENDBRANCH   1   9
BRANCH   4  27
ATOM     27  C   UNL     1      13.109  24.324  39.732  1.00  0.00     0.134 A 
ATOM     28  N   UNL     1      12.285  24.823  40.694  1.00  0.00    -0.215 NA
ATOM     29  N   UNL     1      14.419  24.693  39.713  1.00  0.00    -0.238 NA
ATOM     30  C   UNL     1      12.734  25.693  41.635  1.00  0.00     0.135 A 
ATOM     31  C   UNL     1      14.915  25.574  40.621  1.00  0.00     0.043 A 
ATOM     32  C   UNL     1      14.074  26.100  41.608  1.00  0.00     0.070 A 
ATOM     33  C   UNL     1      16.353  25.970  40.561  1.00  0.00     0.067 C 
BRANCH  30  34
ATOM     34  N   UNL     1      11.808  26.227  42.591  1.00  0.00    -0.323 N 
ATOM     35  H   UNL     1      11.612  27.248  42.558  1.00  0.00     0.170 HD
BRANCH  34  36
ATOM     36  C   UNL     1      11.106  25.435  43.560  1.00  0.00     0.153 A 
ATOM     37  N   UNL     1       9.762  25.425  43.663  1.00  0.00    -0.158 NA
ATOM     38  C   UNL     1      11.666  24.520  44.441  1.00  0.00     0.071 A 
ATOM     39  N   UNL     1       9.446  24.539  44.596  1.00  0.00    -0.281 N 
ATOM     40  C   UNL     1      10.570  23.972  45.077  1.00  0.00     0.034 A 
ATOM     41  H   UNL     1       8.470  24.301  44.872  1.00  0.00     0.190 HD
ATOM     42  C   UNL     1      10.605  22.927  46.148  1.00  0.00     0.066 C 
ENDBRANCH  34  36
ENDBRANCH  30  34
ENDBRANCH   4  27
TORSDOF 8
ENDMDL
