MODEL 1
REMARK VINA RESULT:   -11.176      0.000      0.000
REMARK INTER + INTRA:         -13.617
REMARK INTER:                 -13.136
REMARK INTRA:                  -0.481
REMARK UNBOUND:                -0.481
REMARK SMILES CN1CCN(c2ccc(Nc3ncc4cc5n(c4n3)C3(CCCCC3)CNC5=O)nc2)CC1
REMARK SMILES IDX 6 1 31 2 30 3 9 4 8 5 7 6 5 7 1 8 2 9 3 10 33 11 4 12 32 13
REMARK SMILES IDX 10 14 11 16 19 17 12 18 18 19 13 20 14 21 17 22 15 23 16 24
REMARK SMILES IDX 20 25 28 26 21 27 26 28 25 29 27 30 29 31 22 32 24 33 23 35
REMARK H PARENT 10 15 27 34
REMARK Flexibility Score: inf
ROOT
ATOM      1  C   UNL     1      21.118  37.913 -11.619  1.00  0.00     0.055 A 
ATOM      2  C   UNL     1      21.841  37.292 -12.649  1.00  0.00     0.139 A 
ATOM      3  N   UNL     1      22.767  36.340 -12.357  1.00  0.00    -0.237 NA
ATOM      4  C   UNL     1      23.043  35.964 -11.079  1.00  0.00     0.132 A 
ATOM      5  C   UNL     1      22.325  36.546 -10.022  1.00  0.00     0.049 A 
ATOM      6  C   UNL     1      21.370  37.526 -10.296  1.00  0.00     0.031 A 
ENDROOT
BRANCH   1   7
ATOM      7  N   UNL     1      20.142  38.932 -11.909  1.00  0.00    -0.368 N 
ATOM      8  C   UNL     1      17.155  40.941 -12.283  1.00  0.00     0.105 C 
ATOM      9  N   UNL     1      18.563  41.196 -12.632  1.00  0.00    -0.303 NA
ATOM     10  C   UNL     1      19.066  40.270 -13.668  1.00  0.00     0.105 C 
ATOM     11  C   UNL     1      19.445  41.241 -11.448  1.00  0.00     0.105 C 
ATOM     12  C   UNL     1      19.331  38.857 -13.125  1.00  0.00     0.132 C 
ATOM     13  C   UNL     1      19.707  39.852 -10.854  1.00  0.00     0.132 C 
ENDBRANCH   1   7
BRANCH   4  14
ATOM     14  N   UNL     1      24.019  34.937 -10.851  1.00  0.00    -0.309 N 
ATOM     15  H   UNL     1      24.351  34.391 -11.678  1.00  0.00     0.171 HD
BRANCH  14  16
ATOM     16  C   UNL     1      24.674  34.704  -9.595  1.00  0.00     0.230 A 
ATOM     17  N   UNL     1      24.459  35.566  -8.558  1.00  0.00    -0.194 NA
ATOM     18  N   UNL     1      25.457  33.591  -9.409  1.00  0.00    -0.221 NA
ATOM     19  C   UNL     1      25.067  35.333  -7.369  1.00  0.00     0.146 A 
ATOM     20  C   UNL     1      26.052  33.330  -8.210  1.00  0.00     0.127 A 
ATOM     21  C   UNL     1      25.844  34.228  -7.174  1.00  0.00     0.038 A 
ATOM     22  N   UNL     1      24.925  36.041  -6.225  1.00  0.00    -0.313 N 
ATOM     23  C   UNL     1      26.202  34.187  -5.848  1.00  0.00     0.045 A 
ATOM     24  C   UNL     1      25.594  35.310  -5.297  1.00  0.00     0.109 A 
ATOM     25  C   UNL     1      24.029  37.183  -5.900  1.00  0.00     0.064 C 
ATOM     26  C   UNL     1      25.505  35.642  -3.879  1.00  0.00     0.268 C 
ATOM     27  C   UNL     1      22.578  36.643  -5.773  1.00  0.00     0.031 C 
ATOM     28  C   UNL     1      24.506  37.828  -4.549  1.00  0.00     0.145 C 
ATOM     29  C   UNL     1      24.091  38.268  -7.018  1.00  0.00     0.031 C 
ATOM     30  N   UNL     1      24.781  36.818  -3.526  1.00  0.00    -0.348 N 
ATOM     31  O   UNL     1      26.005  34.899  -2.992  1.00  0.00    -0.268 OA
ATOM     32  C   UNL     1      21.520  37.750  -5.632  1.00  0.00     0.002 C 
ATOM     33  C   UNL     1      23.047  39.376  -6.824  1.00  0.00     0.002 C 
ATOM     34  H   UNL     1      24.524  36.998  -2.529  1.00  0.00     0.163 HD
ATOM     35  C   UNL     1      21.635  38.785  -6.754  1.00  0.00     0.000 C 
ENDBRANCH  14  16
ENDBRANCH   4  14
TORSDOF 3
ENDMDL
MODEL 2
REMARK VINA RESULT:   -10.501      3.567      5.170
REMARK INTER + INTRA:         -12.823
REMARK INTER:                 -12.513
REMARK INTRA:                  -0.310
REMARK UNBOUND:                -0.481
REMARK SMILES CN1CCN(c2ccc(Nc3ncc4cc5n(c4n3)C3(CCCCC3)CNC5=O)nc2)CC1
REMARK SMILES IDX 6 1 31 2 30 3 9 4 8 5 7 6 5 7 1 8 2 9 3 10 33 11 4 12 32 13
REMARK SMILES IDX 10 14 11 16 19 17 12 18 18 19 13 20 14 21 17 22 15 23 16 24
REMARK SMILES IDX 20 25 28 26 21 27 26 28 25 29 27 30 29 31 22 32 24 33 23 35
REMARK H PARENT 10 15 27 34
REMARK Flexibility Score: inf
ROOT
ATOM      1  C   UNL     1      19.383  41.623  -7.344  1.00  0.00     0.055 A 
ATOM      2  C   UNL     1      18.753  41.582  -8.598  1.00  0.00     0.139 A 
ATOM      3  N   UNL     1      19.045  40.587  -9.478  1.00  0.00    -0.237 NA
ATOM      4  C   UNL     1      19.955  39.615  -9.198  1.00  0.00     0.132 A 
ATOM      5  C   UNL     1      20.589  39.608  -7.946  1.00  0.00     0.049 A 
ATOM      6  C   UNL     1      20.307  40.618  -7.026  1.00  0.00     0.031 A 
ENDROOT
BRANCH   1   7
ATOM      7  N   UNL     1      19.095  42.675  -6.404  1.00  0.00    -0.368 N 
ATOM      8  C   UNL     1      17.601  45.285  -4.390  1.00  0.00     0.105 C 
ATOM      9  N   UNL     1      18.951  44.697  -4.395  1.00  0.00    -0.303 NA
ATOM     10  C   UNL     1      19.672  44.946  -5.661  1.00  0.00     0.105 C 
ATOM     11  C   UNL     1      18.952  43.267  -4.025  1.00  0.00     0.105 C 
ATOM     12  C   UNL     1      19.158  44.078  -6.819  1.00  0.00     0.132 C 
ATOM     13  C   UNL     1      18.413  42.367  -5.144  1.00  0.00     0.132 C 
ENDBRANCH   1   7
BRANCH   4  14
ATOM     14  N   UNL     1      20.195  38.586 -10.170  1.00  0.00    -0.309 N 
ATOM     15  H   UNL     1      19.581  38.564 -11.015  1.00  0.00     0.171 HD
BRANCH  14  16
ATOM     16  C   UNL     1      21.305  37.678 -10.133  1.00  0.00     0.230 A 
ATOM     17  N   UNL     1      22.061  37.589  -8.998  1.00  0.00    -0.194 NA
ATOM     18  N   UNL     1      21.574  36.854 -11.199  1.00  0.00    -0.221 NA
ATOM     19  C   UNL     1      23.098  36.718  -8.962  1.00  0.00     0.146 A 
ATOM     20  C   UNL     1      22.598  35.954 -11.166  1.00  0.00     0.127 A 
ATOM     21  C   UNL     1      23.369  35.893 -10.015  1.00  0.00     0.038 A 
ATOM     22  N   UNL     1      23.910  36.456  -7.911  1.00  0.00    -0.313 N 
ATOM     23  C   UNL     1      24.374  35.035  -9.637  1.00  0.00     0.045 A 
ATOM     24  C   UNL     1      24.659  35.402  -8.326  1.00  0.00     0.109 A 
ATOM     25  C   UNL     1      23.863  36.944  -6.507  1.00  0.00     0.064 C 
ATOM     26  C   UNL     1      25.527  34.690  -7.394  1.00  0.00     0.268 C 
ATOM     27  C   UNL     1      22.673  36.251  -5.790  1.00  0.00     0.031 C 
ATOM     28  C   UNL     1      25.223  36.590  -5.805  1.00  0.00     0.145 C 
ATOM     29  C   UNL     1      23.671  38.491  -6.469  1.00  0.00     0.031 C 
ATOM     30  N   UNL     1      25.634  35.211  -6.071  1.00  0.00    -0.348 N 
ATOM     31  O   UNL     1      26.125  33.631  -7.722  1.00  0.00    -0.268 OA
ATOM     32  C   UNL     1      22.388  36.812  -4.387  1.00  0.00     0.002 C 
ATOM     33  C   UNL     1      23.427  39.021  -5.048  1.00  0.00     0.002 C 
ATOM     34  H   UNL     1      26.082  34.643  -5.317  1.00  0.00     0.163 HD
ATOM     35  C   UNL     1      22.215  38.333  -4.414  1.00  0.00     0.000 C 
ENDBRANCH  14  16
ENDBRANCH   4  14
TORSDOF 3
ENDMDL
MODEL 3
REMARK VINA RESULT:   -10.305      3.252      4.730
REMARK INTER + INTRA:         -12.593
REMARK INTER:                 -11.857
REMARK INTRA:                  -0.736
REMARK UNBOUND:                -0.481
REMARK SMILES CN1CCN(c2ccc(Nc3ncc4cc5n(c4n3)C3(CCCCC3)CNC5=O)nc2)CC1
REMARK SMILES IDX 6 1 31 2 30 3 9 4 8 5 7 6 5 7 1 8 2 9 3 10 33 11 4 12 32 13
REMARK SMILES IDX 10 14 11 16 19 17 12 18 18 19 13 20 14 21 17 22 15 23 16 24
REMARK SMILES IDX 20 25 28 26 21 27 26 28 25 29 27 30 29 31 22 32 24 33 23 35
REMARK H PARENT 10 15 27 34
REMARK Flexibility Score: inf
ROOT
ATOM      1  C   UNL     1      19.811  41.930  -8.424  1.00  0.00     0.055 A 
ATOM      2  C   UNL     1      19.276  40.712  -7.976  1.00  0.00     0.139 A 
ATOM      3  N   UNL     1      19.468  39.574  -8.694  1.00  0.00    -0.237 NA
ATOM      4  C   UNL     1      20.159  39.564  -9.866  1.00  0.00     0.132 A 
ATOM      5  C   UNL     1      20.730  40.757 -10.337  1.00  0.00     0.049 A 
ATOM      6  C   UNL     1      20.546  41.938  -9.618  1.00  0.00     0.031 A 
ENDROOT
BRANCH   1   7
ATOM      7  N   UNL     1      19.607  43.147  -7.683  1.00  0.00    -0.368 N 
ATOM      8  C   UNL     1      18.296  46.120  -6.088  1.00  0.00     0.105 C 
ATOM      9  N   UNL     1      19.641  45.519  -6.095  1.00  0.00    -0.303 NA
ATOM     10  C   UNL     1      20.249  45.508  -7.442  1.00  0.00     0.105 C 
ATOM     11  C   UNL     1      19.673  44.186  -5.459  1.00  0.00     0.105 C 
ATOM     12  C   UNL     1      19.636  44.443  -8.364  1.00  0.00     0.132 C 
ATOM     13  C   UNL     1      19.037  43.098  -6.334  1.00  0.00     0.132 C 
ENDBRANCH   1   7
BRANCH   4  14
ATOM     14  N   UNL     1      20.339  38.319 -10.558  1.00  0.00    -0.309 N 
ATOM     15  H   UNL     1      19.661  38.085 -11.318  1.00  0.00     0.171 HD
BRANCH  14  16
ATOM     16  C   UNL     1      21.461  37.444 -10.377  1.00  0.00     0.230 A 
ATOM     17  N   UNL     1      22.134  37.455  -9.188  1.00  0.00    -0.194 NA
ATOM     18  N   UNL     1      21.822  36.554 -11.359  1.00  0.00    -0.221 NA
ATOM     19  C   UNL     1      23.183  36.615  -9.016  1.00  0.00     0.146 A 
ATOM     20  C   UNL     1      22.858  35.684 -11.189  1.00  0.00     0.127 A 
ATOM     21  C   UNL     1      23.546  35.724  -9.985  1.00  0.00     0.038 A 
ATOM     22  N   UNL     1      23.923  36.448  -7.895  1.00  0.00    -0.313 N 
ATOM     23  C   UNL     1      24.538  34.920  -9.476  1.00  0.00     0.045 A 
ATOM     24  C   UNL     1      24.721  35.387  -8.178  1.00  0.00     0.109 A 
ATOM     25  C   UNL     1      23.764  37.034  -6.537  1.00  0.00     0.064 C 
ATOM     26  C   UNL     1      25.533  34.765  -7.138  1.00  0.00     0.268 C 
ATOM     27  C   UNL     1      22.540  36.363  -5.857  1.00  0.00     0.031 C 
ATOM     28  C   UNL     1      25.077  36.764  -5.717  1.00  0.00     0.145 C 
ATOM     29  C   UNL     1      23.540  38.574  -6.624  1.00  0.00     0.031 C 
ATOM     30  N   UNL     1      25.534  35.380  -5.852  1.00  0.00    -0.348 N 
ATOM     31  O   UNL     1      26.173  33.700  -7.346  1.00  0.00    -0.268 OA
ATOM     32  C   UNL     1      22.143  37.015  -4.522  1.00  0.00     0.002 C 
ATOM     33  C   UNL     1      23.184  39.197  -5.267  1.00  0.00     0.002 C 
ATOM     34  H   UNL     1      25.938  34.878  -5.030  1.00  0.00     0.163 HD
ATOM     35  C   UNL     1      21.943  38.526  -4.671  1.00  0.00     0.000 C 
ENDBRANCH  14  16
ENDBRANCH   4  14
TORSDOF 3
ENDMDL
MODEL 4
REMARK VINA RESULT:   -10.111      3.074      4.655
REMARK INTER + INTRA:         -12.365
REMARK INTER:                 -11.683
REMARK INTRA:                  -0.682
REMARK UNBOUND:                -0.481
REMARK SMILES CN1CCN(c2ccc(Nc3ncc4cc5n(c4n3)C3(CCCCC3)CNC5=O)nc2)CC1
REMARK SMILES IDX 6 1 31 2 30 3 9 4 8 5 7 6 5 7 1 8 2 9 3 10 33 11 4 12 32 13
REMARK SMILES IDX 10 14 11 16 19 17 12 18 18 19 13 20 14 21 17 22 15 23 16 24
REMARK SMILES IDX 20 25 28 26 21 27 26 28 25 29 27 30 29 31 22 32 24 33 23 35
REMARK H PARENT 10 15 27 34
REMARK Flexibility Score: inf
ROOT
ATOM      1  C   UNL     1      20.079  42.499  -9.378  1.00  0.00     0.055 A 
ATOM      2  C   UNL     1      20.520  42.058 -10.635  1.00  0.00     0.139 A 
ATOM      3  N   UNL     1      20.501  40.733 -10.941  1.00  0.00    -0.237 NA
ATOM      4  C   UNL     1      20.078  39.790 -10.056  1.00  0.00     0.132 A 
ATOM      5  C   UNL     1      19.607  40.193  -8.796  1.00  0.00     0.049 A 
ATOM      6  C   UNL     1      19.617  41.546  -8.458  1.00  0.00     0.031 A 
ENDROOT
BRANCH   1   7
ATOM      7  N   UNL     1      20.104  43.896  -9.031  1.00  0.00    -0.368 N 
ATOM      8  C   UNL     1      19.653  47.482  -8.831  1.00  0.00     0.105 C 
ATOM      9  N   UNL     1      20.408  46.536  -7.991  1.00  0.00    -0.303 NA
ATOM     10  C   UNL     1      21.514  45.886  -8.725  1.00  0.00     0.105 C 
ATOM     11  C   UNL     1      19.537  45.555  -7.312  1.00  0.00     0.105 C 
ATOM     12  C   UNL     1      21.025  44.811  -9.708  1.00  0.00     0.132 C 
ATOM     13  C   UNL     1      18.999  44.483  -8.267  1.00  0.00     0.132 C 
ENDBRANCH   1   7
BRANCH   4  14
ATOM     14  N   UNL     1      20.067  38.412 -10.459  1.00  0.00    -0.309 N 
ATOM     15  H   UNL     1      19.212  38.056 -10.944  1.00  0.00     0.171 HD
BRANCH  14  16
ATOM     16  C   UNL     1      21.196  37.531 -10.371  1.00  0.00     0.230 A 
ATOM     17  N   UNL     1      21.935  37.503  -9.223  1.00  0.00    -0.194 NA
ATOM     18  N   UNL     1      21.498  36.674 -11.401  1.00  0.00    -0.221 NA
ATOM     19  C   UNL     1      22.991  36.657  -9.138  1.00  0.00     0.146 A 
ATOM     20  C   UNL     1      22.541  35.799 -11.318  1.00  0.00     0.127 A 
ATOM     21  C   UNL     1      23.296  35.799 -10.155  1.00  0.00     0.038 A 
ATOM     22  N   UNL     1      23.792  36.454  -8.067  1.00  0.00    -0.313 N 
ATOM     23  C   UNL     1      24.314  34.979  -9.730  1.00  0.00     0.045 A 
ATOM     24  C   UNL     1      24.571  35.402  -8.430  1.00  0.00     0.109 A 
ATOM     25  C   UNL     1      23.712  36.995  -6.683  1.00  0.00     0.064 C 
ATOM     26  C   UNL     1      25.439  34.746  -7.459  1.00  0.00     0.268 C 
ATOM     27  C   UNL     1      22.527  36.302  -5.957  1.00  0.00     0.031 C 
ATOM     28  C   UNL     1      25.069  36.698  -5.949  1.00  0.00     0.145 C 
ATOM     29  C   UNL     1      23.487  38.537  -6.707  1.00  0.00     0.031 C 
ATOM     30  N   UNL     1      25.514  35.319  -6.155  1.00  0.00    -0.348 N 
ATOM     31  O   UNL     1      26.065  33.689  -7.737  1.00  0.00    -0.268 OA
ATOM     32  C   UNL     1      22.209  36.910  -4.581  1.00  0.00     0.002 C 
ATOM     33  C   UNL     1      23.210  39.115  -5.312  1.00  0.00     0.002 C 
ATOM     34  H   UNL     1      25.963  34.790  -5.374  1.00  0.00     0.163 HD
ATOM     35  C   UNL     1      22.003  38.425  -4.669  1.00  0.00     0.000 C 
ENDBRANCH  14  16
ENDBRANCH   4  14
TORSDOF 3
ENDMDL
MODEL 5
REMARK VINA RESULT:   -10.074      2.890      3.791
REMARK INTER + INTRA:         -12.322
REMARK INTER:                 -11.768
REMARK INTRA:                  -0.554
REMARK UNBOUND:                -0.481
REMARK SMILES CN1CCN(c2ccc(Nc3ncc4cc5n(c4n3)C3(CCCCC3)CNC5=O)nc2)CC1
REMARK SMILES IDX 6 1 31 2 30 3 9 4 8 5 7 6 5 7 1 8 2 9 3 10 33 11 4 12 32 13
REMARK SMILES IDX 10 14 11 16 19 17 12 18 18 19 13 20 14 21 17 22 15 23 16 24
REMARK SMILES IDX 20 25 28 26 21 27 26 28 25 29 27 30 29 31 22 32 24 33 23 35
REMARK H PARENT 10 15 27 34
REMARK Flexibility Score: inf
ROOT
ATOM      1  C   UNL     1      23.979  37.590 -14.414  1.00  0.00     0.055 A 
ATOM      2  C   UNL     1      24.910  36.695 -13.865  1.00  0.00     0.139 A 
ATOM      3  N   UNL     1      24.588  35.961 -12.766  1.00  0.00    -0.237 NA
ATOM      4  C   UNL     1      23.380  36.069 -12.151  1.00  0.00     0.132 A 
ATOM      5  C   UNL     1      22.413  36.937 -12.683  1.00  0.00     0.049 A 
ATOM      6  C   UNL     1      22.720  37.701 -13.809  1.00  0.00     0.031 A 
ENDROOT
BRANCH   1   7
ATOM      7  N   UNL     1      24.308  38.385 -15.569  1.00  0.00    -0.368 N 
ATOM      8  C   UNL     1      25.111  41.020 -17.917  1.00  0.00     0.105 C 
ATOM      9  N   UNL     1      24.973  39.563 -18.082  1.00  0.00    -0.303 NA
ATOM     10  C   UNL     1      23.599  39.090 -17.815  1.00  0.00     0.105 C 
ATOM     11  C   UNL     1      25.983  38.804 -17.315  1.00  0.00     0.105 C 
ATOM     12  C   UNL     1      23.255  39.074 -16.318  1.00  0.00     0.132 C 
ATOM     13  C   UNL     1      25.695  38.794 -15.809  1.00  0.00     0.132 C 
ENDBRANCH   1   7
BRANCH   4  14
ATOM     14  N   UNL     1      23.104  35.246 -11.008  1.00  0.00    -0.309 N 
ATOM     15  H   UNL     1      22.263  34.627 -11.047  1.00  0.00     0.171 HD
BRANCH  14  16
ATOM     16  C   UNL     1      23.978  35.107  -9.878  1.00  0.00     0.230 A 
ATOM     17  N   UNL     1      23.867  35.982  -8.835  1.00  0.00    -0.194 NA
ATOM     18  N   UNL     1      24.872  34.068  -9.807  1.00  0.00    -0.221 NA
ATOM     19  C   UNL     1      24.683  35.837  -7.762  1.00  0.00     0.146 A 
ATOM     20  C   UNL     1      25.680  33.894  -8.721  1.00  0.00     0.127 A 
ATOM     21  C   UNL     1      25.572  34.805  -7.682  1.00  0.00     0.038 A 
ATOM     22  N   UNL     1      24.675  36.569  -6.624  1.00  0.00    -0.313 N 
ATOM     23  C   UNL     1      26.150  34.836  -6.435  1.00  0.00     0.045 A 
ATOM     24  C   UNL     1      25.550  35.924  -5.809  1.00  0.00     0.109 A 
ATOM     25  C   UNL     1      23.753  37.645  -6.172  1.00  0.00     0.064 C 
ATOM     26  C   UNL     1      25.672  36.293  -4.403  1.00  0.00     0.268 C 
ATOM     27  C   UNL     1      22.395  36.994  -5.791  1.00  0.00     0.031 C 
ATOM     28  C   UNL     1      24.393  38.369  -4.934  1.00  0.00     0.145 C 
ATOM     29  C   UNL     1      23.535  38.694  -7.304  1.00  0.00     0.031 C 
ATOM     30  N   UNL     1      24.920  37.418  -3.954  1.00  0.00    -0.348 N 
ATOM     31  O   UNL     1      26.374  35.622  -3.600  1.00  0.00    -0.268 OA
ATOM     32  C   UNL     1      21.285  38.016  -5.493  1.00  0.00     0.002 C 
ATOM     33  C   UNL     1      22.447  39.721  -6.957  1.00  0.00     0.002 C 
ATOM     34  H   UNL     1      24.819  37.609  -2.931  1.00  0.00     0.163 HD
ATOM     35  C   UNL     1      21.123  39.021  -6.638  1.00  0.00     0.000 C 
ENDBRANCH  14  16
ENDBRANCH   4  14
TORSDOF 3
ENDMDL
MODEL 6
REMARK VINA RESULT:    -9.890      3.008      4.617
REMARK INTER + INTRA:         -12.106
REMARK INTER:                 -11.524
REMARK INTRA:                  -0.581
REMARK UNBOUND:                -0.481
REMARK SMILES CN1CCN(c2ccc(Nc3ncc4cc5n(c4n3)C3(CCCCC3)CNC5=O)nc2)CC1
REMARK SMILES IDX 6 1 31 2 30 3 9 4 8 5 7 6 5 7 1 8 2 9 3 10 33 11 4 12 32 13
REMARK SMILES IDX 10 14 11 16 19 17 12 18 18 19 13 20 14 21 17 22 15 23 16 24
REMARK SMILES IDX 20 25 28 26 21 27 26 28 25 29 27 30 29 31 22 32 24 33 23 35
REMARK H PARENT 10 15 27 34
REMARK Flexibility Score: inf
ROOT
ATOM      1  C   UNL     1      20.514  42.661 -10.033  1.00  0.00     0.055 A 
ATOM      2  C   UNL     1      20.610  41.854  -8.888  1.00  0.00     0.139 A 
ATOM      3  N   UNL     1      20.463  40.506  -8.987  1.00  0.00    -0.237 NA
ATOM      4  C   UNL     1      20.205  39.889 -10.172  1.00  0.00     0.132 A 
ATOM      5  C   UNL     1      20.124  40.658 -11.343  1.00  0.00     0.049 A 
ATOM      6  C   UNL     1      20.270  42.044 -11.268  1.00  0.00     0.031 A 
ENDROOT
BRANCH   1   7
ATOM      7  N   UNL     1      20.653  44.091  -9.946  1.00  0.00    -0.368 N 
ATOM      8  C   UNL     1      20.159  47.672  -9.764  1.00  0.00     0.105 C 
ATOM      9  N   UNL     1      21.377  46.844  -9.734  1.00  0.00    -0.303 NA
ATOM     10  C   UNL     1      21.591  46.106 -10.997  1.00  0.00     0.105 C 
ATOM     11  C   UNL     1      21.434  45.957  -8.554  1.00  0.00     0.105 C 
ATOM     12  C   UNL     1      20.637  44.913 -11.158  1.00  0.00     0.132 C 
ATOM     13  C   UNL     1      20.470  44.770  -8.660  1.00  0.00     0.132 C 
ENDBRANCH   1   7
BRANCH   4  14
ATOM     14  N   UNL     1      20.084  38.459 -10.200  1.00  0.00    -0.309 N 
ATOM     15  H   UNL     1      19.132  38.056 -10.355  1.00  0.00     0.171 HD
BRANCH  14  16
ATOM     16  C   UNL     1      21.193  37.549 -10.175  1.00  0.00     0.230 A 
ATOM     17  N   UNL     1      21.980  37.484  -9.060  1.00  0.00    -0.194 NA
ATOM     18  N   UNL     1      21.430  36.702 -11.230  1.00  0.00    -0.221 NA
ATOM     19  C   UNL     1      23.017  36.611  -9.035  1.00  0.00     0.146 A 
ATOM     20  C   UNL     1      22.453  35.801 -11.206  1.00  0.00     0.127 A 
ATOM     21  C   UNL     1      23.256  35.763 -10.077  1.00  0.00     0.038 A 
ATOM     22  N   UNL     1      23.858  36.370  -8.002  1.00  0.00    -0.313 N 
ATOM     23  C   UNL     1      24.270  34.911  -9.709  1.00  0.00     0.045 A 
ATOM     24  C   UNL     1      24.593  35.306  -8.415  1.00  0.00     0.109 A 
ATOM     25  C   UNL     1      23.851  36.889  -6.608  1.00  0.00     0.064 C 
ATOM     26  C   UNL     1      25.486  34.613  -7.492  1.00  0.00     0.268 C 
ATOM     27  C   UNL     1      22.681  36.214  -5.843  1.00  0.00     0.031 C 
ATOM     28  C   UNL     1      25.230  36.547  -5.938  1.00  0.00     0.145 C 
ATOM     29  C   UNL     1      23.664  38.437  -6.598  1.00  0.00     0.031 C 
ATOM     30  N   UNL     1      25.631  35.161  -6.185  1.00  0.00    -0.348 N 
ATOM     31  O   UNL     1      26.072  33.545  -7.815  1.00  0.00    -0.268 OA
ATOM     32  C   UNL     1      22.437  36.807  -4.445  1.00  0.00     0.002 C 
ATOM     33  C   UNL     1      23.461  38.998  -5.183  1.00  0.00     0.002 C 
ATOM     34  H   UNL     1      26.100  34.609  -5.432  1.00  0.00     0.163 HD
ATOM     35  C   UNL     1      22.266  38.328  -4.500  1.00  0.00     0.000 C 
ENDBRANCH  14  16
ENDBRANCH   4  14
TORSDOF 3
ENDMDL
MODEL 7
REMARK VINA RESULT:    -9.465      2.492      3.389
REMARK INTER + INTRA:         -11.606
REMARK INTER:                 -11.119
REMARK INTRA:                  -0.487
REMARK UNBOUND:                -0.481
REMARK SMILES CN1CCN(c2ccc(Nc3ncc4cc5n(c4n3)C3(CCCCC3)CNC5=O)nc2)CC1
REMARK SMILES IDX 6 1 31 2 30 3 9 4 8 5 7 6 5 7 1 8 2 9 3 10 33 11 4 12 32 13
REMARK SMILES IDX 10 14 11 16 19 17 12 18 18 19 13 20 14 21 17 22 15 23 16 24
REMARK SMILES IDX 20 25 28 26 21 27 26 28 25 29 27 30 29 31 22 32 24 33 23 35
REMARK H PARENT 10 15 27 34
REMARK Flexibility Score: inf
ROOT
ATOM      1  C   UNL     1      20.291  38.672 -14.433  1.00  0.00     0.055 A 
ATOM      2  C   UNL     1      19.844  37.438 -13.935  1.00  0.00     0.139 A 
ATOM      3  N   UNL     1      20.127  37.072 -12.656  1.00  0.00    -0.237 NA
ATOM      4  C   UNL     1      20.855  37.862 -11.821  1.00  0.00     0.132 A 
ATOM      5  C   UNL     1      21.301  39.114 -12.273  1.00  0.00     0.049 A 
ATOM      6  C   UNL     1      21.024  39.511 -13.582  1.00  0.00     0.031 A 
ENDROOT
BRANCH   1   7
ATOM      7  N   UNL     1      20.012  39.070 -15.788  1.00  0.00    -0.368 N 
ATOM      8  C   UNL     1      18.526  40.184 -18.895  1.00  0.00     0.105 C 
ATOM      9  N   UNL     1      19.904  39.797 -18.546  1.00  0.00    -0.303 NA
ATOM     10  C   UNL     1      20.009  38.378 -18.146  1.00  0.00     0.105 C 
ATOM     11  C   UNL     1      20.516  40.702 -17.552  1.00  0.00     0.105 C 
ATOM     12  C   UNL     1      19.449  38.112 -16.741  1.00  0.00     0.132 C 
ATOM     13  C   UNL     1      19.958  40.492 -16.139  1.00  0.00     0.132 C 
ENDBRANCH   1   7
BRANCH   4  14
ATOM     14  N   UNL     1      21.096  37.418 -10.477  1.00  0.00    -0.309 N 
ATOM     15  H   UNL     1      20.323  37.533  -9.783  1.00  0.00     0.171 HD
BRANCH  14  16
ATOM     16  C   UNL     1      22.264  36.700 -10.056  1.00  0.00     0.230 A 
ATOM     17  N   UNL     1      22.765  36.913  -8.802  1.00  0.00    -0.194 NA
ATOM     18  N   UNL     1      22.841  35.758 -10.872  1.00  0.00    -0.221 NA
ATOM     19  C   UNL     1      23.859  36.221  -8.403  1.00  0.00     0.146 A 
ATOM     20  C   UNL     1      23.926  35.035 -10.472  1.00  0.00     0.127 A 
ATOM     21  C   UNL     1      24.436  35.280  -9.206  1.00  0.00     0.038 A 
ATOM     22  N   UNL     1      24.452  36.259  -7.187  1.00  0.00    -0.313 N 
ATOM     23  C   UNL     1      25.425  34.652  -8.486  1.00  0.00     0.045 A 
ATOM     24  C   UNL     1      25.383  35.271  -7.240  1.00  0.00     0.109 A 
ATOM     25  C   UNL     1      24.054  36.963  -5.938  1.00  0.00     0.064 C 
ATOM     26  C   UNL     1      26.104  34.859  -6.041  1.00  0.00     0.268 C 
ATOM     27  C   UNL     1      22.821  36.233  -5.340  1.00  0.00     0.031 C 
ATOM     28  C   UNL     1      25.263  36.933  -4.936  1.00  0.00     0.145 C 
ATOM     29  C   UNL     1      23.692  38.450  -6.236  1.00  0.00     0.031 C 
ATOM     30  N   UNL     1      25.869  35.603  -4.847  1.00  0.00    -0.348 N 
ATOM     31  O   UNL     1      26.869  33.858  -6.039  1.00  0.00    -0.268 OA
ATOM     32  C   UNL     1      22.184  36.973  -4.152  1.00  0.00     0.002 C 
ATOM     33  C   UNL     1      23.095  39.168  -5.018  1.00  0.00     0.002 C 
ATOM     34  H   UNL     1      26.205  35.240  -3.927  1.00  0.00     0.163 HD
ATOM     35  C   UNL     1      21.857  38.427  -4.504  1.00  0.00     0.000 C 
ENDBRANCH  14  16
ENDBRANCH   4  14
TORSDOF 3
ENDMDL
MODEL 8
REMARK VINA RESULT:    -9.222      2.440      4.097
REMARK INTER + INTRA:         -11.320
REMARK INTER:                 -10.814
REMARK INTRA:                  -0.506
REMARK UNBOUND:                -0.481
REMARK SMILES CN1CCN(c2ccc(Nc3ncc4cc5n(c4n3)C3(CCCCC3)CNC5=O)nc2)CC1
REMARK SMILES IDX 6 1 31 2 30 3 9 4 8 5 7 6 5 7 1 8 2 9 3 10 33 11 4 12 32 13
REMARK SMILES IDX 10 14 11 16 19 17 12 18 18 19 13 20 14 21 17 22 15 23 16 24
REMARK SMILES IDX 20 25 28 26 21 27 26 28 25 29 27 30 29 31 22 32 24 33 23 35
REMARK H PARENT 10 15 27 34
REMARK Flexibility Score: inf
ROOT
ATOM      1  C   UNL     1      19.798  41.608 -13.174  1.00  0.00     0.055 A 
ATOM      2  C   UNL     1      20.454  41.740 -11.939  1.00  0.00     0.139 A 
ATOM      3  N   UNL     1      20.524  40.684 -11.085  1.00  0.00    -0.237 NA
ATOM      4  C   UNL     1      19.960  39.480 -11.373  1.00  0.00     0.132 A 
ATOM      5  C   UNL     1      19.315  39.301 -12.607  1.00  0.00     0.049 A 
ATOM      6  C   UNL     1      19.230  40.370 -13.500  1.00  0.00     0.031 A 
ENDROOT
BRANCH   1   7
ATOM      7  N   UNL     1      19.703  42.719 -14.085  1.00  0.00    -0.368 N 
ATOM      8  C   UNL     1      18.846  45.759 -15.852  1.00  0.00     0.105 C 
ATOM      9  N   UNL     1      19.870  44.731 -16.103  1.00  0.00    -0.303 NA
ATOM     10  C   UNL     1      19.283  43.409 -16.407  1.00  0.00     0.105 C 
ATOM     11  C   UNL     1      20.880  44.658 -15.026  1.00  0.00     0.105 C 
ATOM     12  C   UNL     1      18.712  42.711 -15.163  1.00  0.00     0.132 C 
ATOM     13  C   UNL     1      20.339  43.998 -13.753  1.00  0.00     0.132 C 
ENDBRANCH   1   7
BRANCH   4  14
ATOM     14  N   UNL     1      20.094  38.405 -10.431  1.00  0.00    -0.309 N 
ATOM     15  H   UNL     1      19.277  38.200  -9.811  1.00  0.00     0.171 HD
BRANCH  14  16
ATOM     16  C   UNL     1      21.210  37.506 -10.378  1.00  0.00     0.230 A 
ATOM     17  N   UNL     1      21.982  37.463  -9.251  1.00  0.00    -0.194 NA
ATOM     18  N   UNL     1      21.468  36.646 -11.417  1.00  0.00    -0.221 NA
ATOM     19  C   UNL     1      23.026  36.600  -9.199  1.00  0.00     0.146 A 
ATOM     20  C   UNL     1      22.498  35.754 -11.367  1.00  0.00     0.127 A 
ATOM     21  C   UNL     1      23.287  35.739 -10.226  1.00  0.00     0.038 A 
ATOM     22  N   UNL     1      23.855  36.381  -8.152  1.00  0.00    -0.313 N 
ATOM     23  C   UNL     1      24.303  34.901  -9.833  1.00  0.00     0.045 A 
ATOM     24  C   UNL     1      24.605  35.317  -8.539  1.00  0.00     0.109 A 
ATOM     25  C   UNL     1      23.825  36.920  -6.766  1.00  0.00     0.064 C 
ATOM     26  C   UNL     1      25.491  34.645  -7.596  1.00  0.00     0.268 C 
ATOM     27  C   UNL     1      22.650  36.245  -6.007  1.00  0.00     0.031 C 
ATOM     28  C   UNL     1      25.197  36.599  -6.072  1.00  0.00     0.145 C 
ATOM     29  C   UNL     1      23.624  38.466  -6.781  1.00  0.00     0.031 C 
ATOM     30  N   UNL     1      25.613  35.213  -6.294  1.00  0.00    -0.348 N 
ATOM     31  O   UNL     1      26.090  33.578  -7.895  1.00  0.00    -0.268 OA
ATOM     32  C   UNL     1      22.382  36.855  -4.621  1.00  0.00     0.002 C 
ATOM     33  C   UNL     1      23.397  39.045  -5.377  1.00  0.00     0.002 C 
ATOM     34  H   UNL     1      26.076  34.676  -5.527  1.00  0.00     0.163 HD
ATOM     35  C   UNL     1      22.199  38.374  -4.700  1.00  0.00     0.000 C 
ENDBRANCH  14  16
ENDBRANCH   4  14
TORSDOF 3
ENDMDL
MODEL 9
REMARK VINA RESULT:    -9.185      4.043      9.644
REMARK INTER + INTRA:         -11.277
REMARK INTER:                 -10.841
REMARK INTRA:                  -0.436
REMARK UNBOUND:                -0.481
REMARK SMILES CN1CCN(c2ccc(Nc3ncc4cc5n(c4n3)C3(CCCCC3)CNC5=O)nc2)CC1
REMARK SMILES IDX 6 1 31 2 30 3 9 4 8 5 7 6 5 7 1 8 2 9 3 10 33 11 4 12 32 13
REMARK SMILES IDX 10 14 11 16 19 17 12 18 18 19 13 20 14 21 17 22 15 23 16 24
REMARK SMILES IDX 20 25 28 26 21 27 26 28 25 29 27 30 29 31 22 32 24 33 23 35
REMARK H PARENT 10 15 27 34
REMARK Flexibility Score: inf
ROOT
ATOM      1  C   UNL     1      24.639  35.632  -7.909  1.00  0.00     0.055 A 
ATOM      2  C   UNL     1      23.444  36.272  -8.276  1.00  0.00     0.139 A 
ATOM      3  N   UNL     1      23.006  36.219  -9.562  1.00  0.00    -0.237 NA
ATOM      4  C   UNL     1      23.698  35.571 -10.538  1.00  0.00     0.132 A 
ATOM      5  C   UNL     1      24.886  34.899 -10.207  1.00  0.00     0.049 A 
ATOM      6  C   UNL     1      25.357  34.940  -8.894  1.00  0.00     0.031 A 
ENDROOT
BRANCH   1   7
ATOM      7  N   UNL     1      25.124  35.688  -6.555  1.00  0.00    -0.368 N 
ATOM      8  C   UNL     1      26.000  35.058  -3.100  1.00  0.00     0.105 C 
ATOM      9  N   UNL     1      26.265  36.202  -3.989  1.00  0.00    -0.303 NA
ATOM     10  C   UNL     1      25.026  36.889  -4.412  1.00  0.00     0.105 C 
ATOM     11  C   UNL     1      27.123  35.845  -5.138  1.00  0.00     0.105 C 
ATOM     12  C   UNL     1      24.236  36.097  -5.465  1.00  0.00     0.132 C 
ATOM     13  C   UNL     1      26.381  35.023  -6.198  1.00  0.00     0.132 C 
ENDBRANCH   1   7
BRANCH   4  14
ATOM     14  N   UNL     1      23.162  35.540 -11.869  1.00  0.00    -0.309 N 
ATOM     15  H   UNL     1      23.330  34.681 -12.440  1.00  0.00     0.171 HD
BRANCH  14  16
ATOM     16  C   UNL     1      22.293  36.542 -12.418  1.00  0.00     0.230 A 
ATOM     17  N   UNL     1      22.792  37.438 -13.320  1.00  0.00    -0.194 NA
ATOM     18  N   UNL     1      20.959  36.565 -12.096  1.00  0.00    -0.221 NA
ATOM     19  C   UNL     1      21.964  38.372 -13.849  1.00  0.00     0.146 A 
ATOM     20  C   UNL     1      20.109  37.482 -12.642  1.00  0.00     0.127 A 
ATOM     21  C   UNL     1      20.636  38.400 -13.538  1.00  0.00     0.038 A 
ATOM     22  N   UNL     1      22.267  39.295 -14.791  1.00  0.00    -0.313 N 
ATOM     23  C   UNL     1      20.033  39.353 -14.324  1.00  0.00     0.045 A 
ATOM     24  C   UNL     1      21.072  39.861 -15.098  1.00  0.00     0.109 A 
ATOM     25  C   UNL     1      23.514  39.501 -15.576  1.00  0.00     0.064 C 
ATOM     26  C   UNL     1      20.946  40.774 -16.229  1.00  0.00     0.268 C 
ATOM     27  C   UNL     1      23.625  38.360 -16.623  1.00  0.00     0.031 C 
ATOM     28  C   UNL     1      23.438  40.903 -16.281  1.00  0.00     0.145 C 
ATOM     29  C   UNL     1      24.762  39.482 -14.642  1.00  0.00     0.031 C 
ATOM     30  N   UNL     1      22.141  41.124 -16.924  1.00  0.00    -0.348 N 
ATOM     31  O   UNL     1      19.826  41.202 -16.614  1.00  0.00    -0.268 OA
ATOM     32  C   UNL     1      24.968  38.341 -17.372  1.00  0.00     0.002 C 
ATOM     33  C   UNL     1      26.084  39.502 -15.422  1.00  0.00     0.002 C 
ATOM     34  H   UNL     1      22.089  41.613 -17.846  1.00  0.00     0.163 HD
ATOM     35  C   UNL     1      26.154  38.328 -16.402  1.00  0.00     0.000 C 
ENDBRANCH  14  16
ENDBRANCH   4  14
TORSDOF 3
ENDMDL
MODEL 10
REMARK VINA RESULT:    -9.048      2.924      8.144
REMARK INTER + INTRA:         -11.115
REMARK INTER:                 -10.915
REMARK INTRA:                  -0.201
REMARK UNBOUND:                -0.481
REMARK SMILES CN1CCN(c2ccc(Nc3ncc4cc5n(c4n3)C3(CCCCC3)CNC5=O)nc2)CC1
REMARK SMILES IDX 6 1 31 2 30 3 9 4 8 5 7 6 5 7 1 8 2 9 3 10 33 11 4 12 32 13
REMARK SMILES IDX 10 14 11 16 19 17 12 18 18 19 13 20 14 21 17 22 15 23 16 24
REMARK SMILES IDX 20 25 28 26 21 27 26 28 25 29 27 30 29 31 22 32 24 33 23 35
REMARK H PARENT 10 15 27 34
REMARK Flexibility Score: inf
ROOT
ATOM      1  C   UNL     1      24.586  35.764  -7.885  1.00  0.00     0.055 A 
ATOM      2  C   UNL     1      23.349  36.366  -8.164  1.00  0.00     0.139 A 
ATOM      3  N   UNL     1      22.869  36.387  -9.436  1.00  0.00    -0.237 NA
ATOM      4  C   UNL     1      23.559  35.851 -10.480  1.00  0.00     0.132 A 
ATOM      5  C   UNL     1      24.790  35.220 -10.238  1.00  0.00     0.049 A 
ATOM      6  C   UNL     1      25.303  35.187  -8.941  1.00  0.00     0.031 A 
ENDROOT
BRANCH   1   7
ATOM      7  N   UNL     1      25.115  35.744  -6.546  1.00  0.00    -0.368 N 
ATOM      8  C   UNL     1      26.067  34.936  -3.148  1.00  0.00     0.105 C 
ATOM      9  N   UNL     1      26.355  36.102  -4.000  1.00  0.00    -0.303 NA
ATOM     10  C   UNL     1      25.137  36.859  -4.355  1.00  0.00     0.105 C 
ATOM     11  C   UNL     1      27.161  35.755  -5.189  1.00  0.00     0.105 C 
ATOM     12  C   UNL     1      24.280  36.147  -5.412  1.00  0.00     0.132 C 
ATOM     13  C   UNL     1      26.350  35.010  -6.255  1.00  0.00     0.132 C 
ENDBRANCH   1   7
BRANCH   4  14
ATOM     14  N   UNL     1      22.979  35.892 -11.792  1.00  0.00    -0.309 N 
ATOM     15  H   UNL     1      23.286  35.169 -12.481  1.00  0.00     0.171 HD
BRANCH  14  16
ATOM     16  C   UNL     1      21.907  36.764 -12.179  1.00  0.00     0.230 A 
ATOM     17  N   UNL     1      21.408  37.656 -11.272  1.00  0.00    -0.194 NA
ATOM     18  N   UNL     1      21.426  36.756 -13.465  1.00  0.00    -0.221 NA
ATOM     19  C   UNL     1      20.407  38.488 -11.647  1.00  0.00     0.146 A 
ATOM     20  C   UNL     1      20.437  37.607 -13.863  1.00  0.00     0.127 A 
ATOM     21  C   UNL     1      19.926  38.489 -12.924  1.00  0.00     0.038 A 
ATOM     22  N   UNL     1      19.835  39.466 -10.906  1.00  0.00    -0.313 N 
ATOM     23  C   UNL     1      19.027  39.523 -13.041  1.00  0.00     0.045 A 
ATOM     24  C   UNL     1      19.022  40.113 -11.780  1.00  0.00     0.109 A 
ATOM     25  C   UNL     1      20.174  39.975  -9.550  1.00  0.00     0.064 C 
ATOM     26  C   UNL     1      18.374  41.366 -11.410  1.00  0.00     0.268 C 
ATOM     27  C   UNL     1      21.493  40.789  -9.650  1.00  0.00     0.031 C 
ATOM     28  C   UNL     1      18.994  40.880  -9.043  1.00  0.00     0.145 C 
ATOM     29  C   UNL     1      20.360  38.793  -8.549  1.00  0.00     0.031 C 
ATOM     30  N   UNL     1      18.545  41.821 -10.070  1.00  0.00    -0.348 N 
ATOM     31  O   UNL     1      17.728  42.050 -12.248  1.00  0.00    -0.268 OA
ATOM     32  C   UNL     1      22.063  41.208  -8.285  1.00  0.00     0.002 C 
ATOM     33  C   UNL     1      20.894  39.253  -7.185  1.00  0.00     0.002 C 
ATOM     34  H   UNL     1      18.269  42.793  -9.805  1.00  0.00     0.163 HD
ATOM     35  C   UNL     1      22.217  40.007  -7.347  1.00  0.00     0.000 C 
ENDBRANCH  14  16
ENDBRANCH   4  14
TORSDOF 3
ENDMDL
MODEL 11
REMARK VINA RESULT:    -8.994      3.582      9.031
REMARK INTER + INTRA:         -11.053
REMARK INTER:                 -10.513
REMARK INTRA:                  -0.540
REMARK UNBOUND:                -0.481
REMARK SMILES CN1CCN(c2ccc(Nc3ncc4cc5n(c4n3)C3(CCCCC3)CNC5=O)nc2)CC1
REMARK SMILES IDX 6 1 31 2 30 3 9 4 8 5 7 6 5 7 1 8 2 9 3 10 33 11 4 12 32 13
REMARK SMILES IDX 10 14 11 16 19 17 12 18 18 19 13 20 14 21 17 22 15 23 16 24
REMARK SMILES IDX 20 25 28 26 21 27 26 28 25 29 27 30 29 31 22 32 24 33 23 35
REMARK H PARENT 10 15 27 34
REMARK Flexibility Score: inf
ROOT
ATOM      1  C   UNL     1      24.609  35.599  -7.881  1.00  0.00     0.055 A 
ATOM      2  C   UNL     1      23.517  36.375  -8.301  1.00  0.00     0.139 A 
ATOM      3  N   UNL     1      23.080  36.302  -9.587  1.00  0.00    -0.237 NA
ATOM      4  C   UNL     1      23.679  35.504 -10.512  1.00  0.00     0.132 A 
ATOM      5  C   UNL     1      24.759  34.696 -10.126  1.00  0.00     0.049 A 
ATOM      6  C   UNL     1      25.227  34.753  -8.812  1.00  0.00     0.031 A 
ENDROOT
BRANCH   1   7
ATOM      7  N   UNL     1      25.094  35.672  -6.527  1.00  0.00    -0.368 N 
ATOM      8  C   UNL     1      25.988  35.074  -3.071  1.00  0.00     0.105 C 
ATOM      9  N   UNL     1      26.219  36.223  -3.963  1.00  0.00    -0.303 NA
ATOM     10  C   UNL     1      24.962  36.874  -4.387  1.00  0.00     0.105 C 
ATOM     11  C   UNL     1      27.088  35.888  -5.110  1.00  0.00     0.105 C 
ATOM     12  C   UNL     1      24.194  36.058  -5.438  1.00  0.00     0.132 C 
ATOM     13  C   UNL     1      26.368  35.043  -6.168  1.00  0.00     0.132 C 
ENDBRANCH   1   7
BRANCH   4  14
ATOM     14  N   UNL     1      23.148  35.465 -11.845  1.00  0.00    -0.309 N 
ATOM     15  H   UNL     1      22.346  34.820 -12.029  1.00  0.00     0.171 HD
BRANCH  14  16
ATOM     16  C   UNL     1      23.543  36.349 -12.903  1.00  0.00     0.230 A 
ATOM     17  N   UNL     1      22.706  37.361 -13.279  1.00  0.00    -0.194 NA
ATOM     18  N   UNL     1      24.778  36.229 -13.493  1.00  0.00    -0.221 NA
ATOM     19  C   UNL     1      23.091  38.204 -14.268  1.00  0.00     0.146 A 
ATOM     20  C   UNL     1      25.189  37.086 -14.470  1.00  0.00     0.127 A 
ATOM     21  C   UNL     1      24.317  38.094 -14.856  1.00  0.00     0.038 A 
ATOM     22  N   UNL     1      22.422  39.287 -14.726  1.00  0.00    -0.313 N 
ATOM     23  C   UNL     1      24.478  39.158 -15.711  1.00  0.00     0.045 A 
ATOM     24  C   UNL     1      23.296  39.880 -15.580  1.00  0.00     0.109 A 
ATOM     25  C   UNL     1      21.163  39.920 -14.248  1.00  0.00     0.064 C 
ATOM     26  C   UNL     1      23.019  41.202 -16.133  1.00  0.00     0.268 C 
ATOM     27  C   UNL     1      21.460  40.642 -12.906  1.00  0.00     0.031 C 
ATOM     28  C   UNL     1      20.669  40.940 -15.335  1.00  0.00     0.145 C 
ATOM     29  C   UNL     1      20.054  38.846 -14.034  1.00  0.00     0.031 C 
ATOM     30  N   UNL     1      21.757  41.789 -15.826  1.00  0.00    -0.348 N 
ATOM     31  O   UNL     1      23.874  41.826 -16.815  1.00  0.00    -0.268 OA
ATOM     32  C   UNL     1      20.201  41.173 -12.201  1.00  0.00     0.002 C 
ATOM     33  C   UNL     1      18.798  39.419 -13.363  1.00  0.00     0.002 C 
ATOM     34  H   UNL     1      21.583  42.798 -16.031  1.00  0.00     0.163 HD
ATOM     35  C   UNL     1      19.149  40.075 -12.024  1.00  0.00     0.000 C 
ENDBRANCH  14  16
ENDBRANCH   4  14
TORSDOF 3
ENDMDL
MODEL 12
REMARK VINA RESULT:    -8.873      2.184      4.429
REMARK INTER + INTRA:         -10.911
REMARK INTER:                 -10.228
REMARK INTRA:                  -0.682
REMARK UNBOUND:                -0.481
REMARK SMILES CN1CCN(c2ccc(Nc3ncc4cc5n(c4n3)C3(CCCCC3)CNC5=O)nc2)CC1
REMARK SMILES IDX 6 1 31 2 30 3 9 4 8 5 7 6 5 7 1 8 2 9 3 10 33 11 4 12 32 13
REMARK SMILES IDX 10 14 11 16 19 17 12 18 18 19 13 20 14 21 17 22 15 23 16 24
REMARK SMILES IDX 20 25 28 26 21 27 26 28 25 29 27 30 29 31 22 32 24 33 23 35
REMARK H PARENT 10 15 27 34
REMARK Flexibility Score: inf
ROOT
ATOM      1  C   UNL     1      21.204  38.628 -11.775  1.00  0.00     0.055 A 
ATOM      2  C   UNL     1      21.171  39.904 -11.192  1.00  0.00     0.139 A 
ATOM      3  N   UNL     1      20.976  40.040  -9.853  1.00  0.00    -0.237 NA
ATOM      4  C   UNL     1      20.790  38.969  -9.035  1.00  0.00     0.132 A 
ATOM      5  C   UNL     1      20.839  37.674  -9.576  1.00  0.00     0.049 A 
ATOM      6  C   UNL     1      21.037  37.509 -10.948  1.00  0.00     0.031 A 
ENDROOT
BRANCH   1   7
ATOM      7  N   UNL     1      21.397  38.466 -13.193  1.00  0.00    -0.368 N 
ATOM      8  C   UNL     1      22.531  37.573 -16.512  1.00  0.00     0.105 C 
ATOM      9  N   UNL     1      21.402  38.396 -16.046  1.00  0.00    -0.303 NA
ATOM     10  C   UNL     1      21.844  39.607 -15.324  1.00  0.00     0.105 C 
ATOM     11  C   UNL     1      20.410  37.618 -15.275  1.00  0.00     0.105 C 
ATOM     12  C   UNL     1      22.362  39.301 -13.910  1.00  0.00     0.132 C 
ATOM     13  C   UNL     1      20.903  37.262 -13.868  1.00  0.00     0.132 C 
ENDBRANCH   1   7
BRANCH   4  14
ATOM     14  N   UNL     1      20.611  39.190  -7.628  1.00  0.00    -0.309 N 
ATOM     15  H   UNL     1      19.687  39.559  -7.309  1.00  0.00     0.171 HD
BRANCH  14  16
ATOM     16  C   UNL     1      21.557  38.808  -6.619  1.00  0.00     0.230 A 
ATOM     17  N   UNL     1      22.468  37.826  -6.892  1.00  0.00    -0.194 NA
ATOM     18  N   UNL     1      21.597  39.462  -5.412  1.00  0.00    -0.221 NA
ATOM     19  C   UNL     1      23.370  37.480  -5.942  1.00  0.00     0.146 A 
ATOM     20  C   UNL     1      22.517  39.142  -4.457  1.00  0.00     0.127 A 
ATOM     21  C   UNL     1      23.419  38.128  -4.741  1.00  0.00     0.038 A 
ATOM     22  N   UNL     1      24.373  36.580  -6.056  1.00  0.00    -0.313 N 
ATOM     23  C   UNL     1      24.512  37.661  -4.050  1.00  0.00     0.045 A 
ATOM     24  C   UNL     1      25.084  36.727  -4.908  1.00  0.00     0.109 A 
ATOM     25  C   UNL     1      24.841  35.796  -7.231  1.00  0.00     0.064 C 
ATOM     26  C   UNL     1      26.373  36.065  -4.737  1.00  0.00     0.268 C 
ATOM     27  C   UNL     1      25.567  36.764  -8.204  1.00  0.00     0.031 C 
ATOM     28  C   UNL     1      25.815  34.671  -6.730  1.00  0.00     0.145 C 
ATOM     29  C   UNL     1      23.636  35.124  -7.958  1.00  0.00     0.031 C 
ATOM     30  N   UNL     1      26.797  35.182  -5.772  1.00  0.00    -0.348 N 
ATOM     31  O   UNL     1      27.109  36.296  -3.741  1.00  0.00    -0.268 OA
ATOM     32  C   UNL     1      25.929  36.123  -9.554  1.00  0.00     0.002 C 
ATOM     33  C   UNL     1      24.042  34.461  -9.283  1.00  0.00     0.002 C 
ATOM     34  H   UNL     1      27.782  34.834  -5.796  1.00  0.00     0.163 HD
ATOM     35  C   UNL     1      24.709  35.477 -10.215  1.00  0.00     0.000 C 
ENDBRANCH  14  16
ENDBRANCH   4  14
TORSDOF 3
ENDMDL
MODEL 13
REMARK VINA RESULT:    -8.741      4.182      9.707
REMARK INTER + INTRA:         -10.755
REMARK INTER:                 -10.152
REMARK INTRA:                  -0.604
REMARK UNBOUND:                -0.481
REMARK SMILES CN1CCN(c2ccc(Nc3ncc4cc5n(c4n3)C3(CCCCC3)CNC5=O)nc2)CC1
REMARK SMILES IDX 6 1 31 2 30 3 9 4 8 5 7 6 5 7 1 8 2 9 3 10 33 11 4 12 32 13
REMARK SMILES IDX 10 14 11 16 19 17 12 18 18 19 13 20 14 21 17 22 15 23 16 24
REMARK SMILES IDX 20 25 28 26 21 27 26 28 25 29 27 30 29 31 22 32 24 33 23 35
REMARK H PARENT 10 15 27 34
REMARK Flexibility Score: inf
ROOT
ATOM      1  C   UNL     1      23.658  36.203  -8.282  1.00  0.00     0.055 A 
ATOM      2  C   UNL     1      22.561  37.076  -8.224  1.00  0.00     0.139 A 
ATOM      3  N   UNL     1      21.735  37.209  -9.296  1.00  0.00    -0.237 NA
ATOM      4  C   UNL     1      21.937  36.529 -10.456  1.00  0.00     0.132 A 
ATOM      5  C   UNL     1      23.011  35.628 -10.547  1.00  0.00     0.049 A 
ATOM      6  C   UNL     1      23.873  35.475  -9.460  1.00  0.00     0.031 A 
ENDROOT
BRANCH   1   7
ATOM      7  N   UNL     1      24.551  36.059  -7.162  1.00  0.00    -0.368 N 
ATOM      8  C   UNL     1      27.240  36.294  -4.750  1.00  0.00     0.105 C 
ATOM      9  N   UNL     1      26.014  35.478  -4.781  1.00  0.00    -0.303 NA
ATOM     10  C   UNL     1      26.000  34.520  -5.906  1.00  0.00     0.105 C 
ATOM     11  C   UNL     1      24.784  36.295  -4.729  1.00  0.00     0.105 C 
ATOM     12  C   UNL     1      25.730  35.195  -7.259  1.00  0.00     0.132 C 
ATOM     13  C   UNL     1      24.497  37.015  -6.052  1.00  0.00     0.132 C 
ENDBRANCH   1   7
BRANCH   4  14
ATOM     14  N   UNL     1      21.010  36.705 -11.538  1.00  0.00    -0.309 N 
ATOM     15  H   UNL     1      20.298  35.956 -11.693  1.00  0.00     0.171 HD
BRANCH  14  16
ATOM     16  C   UNL     1      20.900  37.898 -12.327  1.00  0.00     0.230 A 
ATOM     17  N   UNL     1      21.852  38.166 -13.270  1.00  0.00    -0.194 NA
ATOM     18  N   UNL     1      19.818  38.732 -12.191  1.00  0.00    -0.221 NA
ATOM     19  C   UNL     1      21.736  39.286 -14.025  1.00  0.00     0.146 A 
ATOM     20  C   UNL     1      19.675  39.848 -12.963  1.00  0.00     0.127 A 
ATOM     21  C   UNL     1      20.662  40.118 -13.898  1.00  0.00     0.038 A 
ATOM     22  N   UNL     1      22.545  39.678 -15.037  1.00  0.00    -0.313 N 
ATOM     23  C   UNL     1      20.747  41.077 -14.880  1.00  0.00     0.045 A 
ATOM     24  C   UNL     1      21.910  40.752 -15.572  1.00  0.00     0.109 A 
ATOM     25  C   UNL     1      23.702  38.991 -15.671  1.00  0.00     0.064 C 
ATOM     26  C   UNL     1      22.369  41.344 -16.824  1.00  0.00     0.268 C 
ATOM     27  C   UNL     1      23.159  37.816 -16.529  1.00  0.00     0.031 C 
ATOM     28  C   UNL     1      24.473  40.027 -16.565  1.00  0.00     0.145 C 
ATOM     29  C   UNL     1      24.679  38.444 -14.587  1.00  0.00     0.031 C 
ATOM     30  N   UNL     1      23.564  40.818 -17.397  1.00  0.00    -0.348 N 
ATOM     31  O   UNL     1      21.717  42.250 -17.407  1.00  0.00    -0.268 OA
ATOM     32  C   UNL     1      24.262  36.900 -17.085  1.00  0.00     0.002 C 
ATOM     33  C   UNL     1      25.789  37.565 -15.182  1.00  0.00     0.002 C 
ATOM     34  H   UNL     1      23.832  41.067 -18.375  1.00  0.00     0.163 HD
ATOM     35  C   UNL     1      25.191  36.400 -15.975  1.00  0.00     0.000 C 
ENDBRANCH  14  16
ENDBRANCH   4  14
TORSDOF 3
ENDMDL
MODEL 14
REMARK VINA RESULT:    -8.698      4.087      6.132
REMARK INTER + INTRA:         -10.705
REMARK INTER:                 -10.513
REMARK INTRA:                  -0.191
REMARK UNBOUND:                -0.481
REMARK SMILES CN1CCN(c2ccc(Nc3ncc4cc5n(c4n3)C3(CCCCC3)CNC5=O)nc2)CC1
REMARK SMILES IDX 6 1 31 2 30 3 9 4 8 5 7 6 5 7 1 8 2 9 3 10 33 11 4 12 32 13
REMARK SMILES IDX 10 14 11 16 19 17 12 18 18 19 13 20 14 21 17 22 15 23 16 24
REMARK SMILES IDX 20 25 28 26 21 27 26 28 25 29 27 30 29 31 22 32 24 33 23 35
REMARK H PARENT 10 15 27 34
REMARK Flexibility Score: inf
ROOT
ATOM      1  C   UNL     1      19.092  42.147  -5.830  1.00  0.00     0.055 A 
ATOM      2  C   UNL     1      20.120  41.863  -6.743  1.00  0.00     0.139 A 
ATOM      3  N   UNL     1      20.914  40.774  -6.562  1.00  0.00    -0.237 NA
ATOM      4  C   UNL     1      20.763  39.934  -5.502  1.00  0.00     0.132 A 
ATOM      5  C   UNL     1      19.732  40.171  -4.579  1.00  0.00     0.049 A 
ATOM      6  C   UNL     1      18.904  41.283  -4.743  1.00  0.00     0.031 A 
ENDROOT
BRANCH   1   7
ATOM      7  N   UNL     1      18.250  43.303  -5.998  1.00  0.00    -0.368 N 
ATOM      8  C   UNL     1      16.524  46.472  -5.717  1.00  0.00     0.105 C 
ATOM      9  N   UNL     1      16.441  45.392  -6.714  1.00  0.00    -0.303 NA
ATOM     10  C   UNL     1      15.938  44.127  -6.138  1.00  0.00     0.105 C 
ATOM     11  C   UNL     1      17.705  45.202  -7.456  1.00  0.00     0.105 C 
ATOM     12  C   UNL     1      16.984  43.410  -5.270  1.00  0.00     0.132 C 
ATOM     13  C   UNL     1      18.789  44.520  -6.613  1.00  0.00     0.132 C 
ENDBRANCH   1   7
BRANCH   4  14
ATOM     14  N   UNL     1      21.626  38.792  -5.390  1.00  0.00    -0.309 N 
ATOM     15  H   UNL     1      21.793  38.403  -4.434  1.00  0.00     0.171 HD
BRANCH  14  16
ATOM     16  C   UNL     1      22.158  38.064  -6.505  1.00  0.00     0.230 A 
ATOM     17  N   UNL     1      23.292  37.321  -6.340  1.00  0.00    -0.194 NA
ATOM     18  N   UNL     1      21.504  38.055  -7.713  1.00  0.00    -0.221 NA
ATOM     19  C   UNL     1      23.782  36.621  -7.392  1.00  0.00     0.146 A 
ATOM     20  C   UNL     1      21.972  37.333  -8.772  1.00  0.00     0.127 A 
ATOM     21  C   UNL     1      23.137  36.603  -8.594  1.00  0.00     0.038 A 
ATOM     22  N   UNL     1      24.852  35.792  -7.396  1.00  0.00    -0.313 N 
ATOM     23  C   UNL     1      23.784  35.707  -9.412  1.00  0.00     0.045 A 
ATOM     24  C   UNL     1      24.819  35.214  -8.624  1.00  0.00     0.109 A 
ATOM     25  C   UNL     1      25.724  35.334  -6.282  1.00  0.00     0.064 C 
ATOM     26  C   UNL     1      25.701  34.098  -8.948  1.00  0.00     0.268 C 
ATOM     27  C   UNL     1      24.919  34.329  -5.414  1.00  0.00     0.031 C 
ATOM     28  C   UNL     1      27.001  34.650  -6.891  1.00  0.00     0.145 C 
ATOM     29  C   UNL     1      26.177  36.541  -5.405  1.00  0.00     0.031 C 
ATOM     30  N   UNL     1      26.662  33.717  -7.967  1.00  0.00    -0.348 N 
ATOM     31  O   UNL     1      25.593  33.461 -10.030  1.00  0.00    -0.268 OA
ATOM     32  C   UNL     1      25.635  33.925  -4.114  1.00  0.00     0.002 C 
ATOM     33  C   UNL     1      26.922  36.102  -4.136  1.00  0.00     0.002 C 
ATOM     34  H   UNL     1      27.183  32.816  -8.063  1.00  0.00     0.163 HD
ATOM     35  C   UNL     1      26.059  35.152  -3.301  1.00  0.00     0.000 C 
ENDBRANCH  14  16
ENDBRANCH   4  14
TORSDOF 3
ENDMDL
MODEL 15
REMARK VINA RESULT:    -8.441      6.162     10.139
REMARK INTER + INTRA:         -10.403
REMARK INTER:                 -10.090
REMARK INTRA:                  -0.312
REMARK UNBOUND:                -0.481
REMARK SMILES CN1CCN(c2ccc(Nc3ncc4cc5n(c4n3)C3(CCCCC3)CNC5=O)nc2)CC1
REMARK SMILES IDX 6 1 31 2 30 3 9 4 8 5 7 6 5 7 1 8 2 9 3 10 33 11 4 12 32 13
REMARK SMILES IDX 10 14 11 16 19 17 12 18 18 19 13 20 14 21 17 22 15 23 16 24
REMARK SMILES IDX 20 25 28 26 21 27 26 28 25 29 27 30 29 31 22 32 24 33 23 35
REMARK H PARENT 10 15 27 34
REMARK Flexibility Score: inf
ROOT
ATOM      1  C   UNL     1      23.125  37.615  -5.597  1.00  0.00     0.055 A 
ATOM      2  C   UNL     1      22.363  37.908  -6.739  1.00  0.00     0.139 A 
ATOM      3  N   UNL     1      21.390  38.856  -6.689  1.00  0.00    -0.237 NA
ATOM      4  C   UNL     1      21.104  39.541  -5.548  1.00  0.00     0.132 A 
ATOM      5  C   UNL     1      21.858  39.293  -4.390  1.00  0.00     0.049 A 
ATOM      6  C   UNL     1      22.861  38.324  -4.417  1.00  0.00     0.031 A 
ENDROOT
BRANCH   1   7
ATOM      7  N   UNL     1      24.150  36.605  -5.628  1.00  0.00    -0.368 N 
ATOM      8  C   UNL     1      26.100  33.561  -5.445  1.00  0.00     0.105 C 
ATOM      9  N   UNL     1      26.452  34.931  -5.854  1.00  0.00    -0.303 NA
ATOM     10  C   UNL     1      26.334  35.902  -4.746  1.00  0.00     0.105 C 
ATOM     11  C   UNL     1      25.719  35.371  -7.060  1.00  0.00     0.105 C 
ATOM     12  C   UNL     1      24.876  36.246  -4.408  1.00  0.00     0.132 C 
ATOM     13  C   UNL     1      24.248  35.693  -6.772  1.00  0.00     0.132 C 
ENDBRANCH   1   7
BRANCH   4  14
ATOM     14  N   UNL     1      20.077  40.543  -5.578  1.00  0.00    -0.309 N 
ATOM     15  H   UNL     1      19.262  40.422  -4.934  1.00  0.00     0.171 HD
BRANCH  14  16
ATOM     16  C   UNL     1      20.158  41.767  -6.321  1.00  0.00     0.230 A 
ATOM     17  N   UNL     1      19.702  42.925  -5.757  1.00  0.00    -0.194 NA
ATOM     18  N   UNL     1      20.746  41.797  -7.562  1.00  0.00    -0.221 NA
ATOM     19  C   UNL     1      19.795  44.082  -6.457  1.00  0.00     0.146 A 
ATOM     20  C   UNL     1      20.871  42.959  -8.265  1.00  0.00     0.127 A 
ATOM     21  C   UNL     1      20.382  44.121  -7.688  1.00  0.00     0.038 A 
ATOM     22  N   UNL     1      19.452  45.322  -6.037  1.00  0.00    -0.313 N 
ATOM     23  C   UNL     1      20.458  45.435  -8.084  1.00  0.00     0.045 A 
ATOM     24  C   UNL     1      19.895  46.141  -7.025  1.00  0.00     0.109 A 
ATOM     25  C   UNL     1      18.979  45.797  -4.709  1.00  0.00     0.064 C 
ATOM     26  C   UNL     1      19.891  47.590  -6.852  1.00  0.00     0.268 C 
ATOM     27  C   UNL     1      20.181  45.771  -3.726  1.00  0.00     0.031 C 
ATOM     28  C   UNL     1      18.416  47.255  -4.868  1.00  0.00     0.145 C 
ATOM     29  C   UNL     1      17.839  44.879  -4.170  1.00  0.00     0.031 C 
ATOM     30  N   UNL     1      19.309  48.105  -5.657  1.00  0.00    -0.348 N 
ATOM     31  O   UNL     1      20.422  48.359  -7.696  1.00  0.00    -0.268 OA
ATOM     32  C   UNL     1      19.788  46.052  -2.266  1.00  0.00     0.002 C 
ATOM     33  C   UNL     1      17.447  45.213  -2.724  1.00  0.00     0.002 C 
ATOM     34  H   UNL     1      19.448  49.106  -5.393  1.00  0.00     0.163 HD
ATOM     35  C   UNL     1      18.663  45.125  -1.798  1.00  0.00     0.000 C 
ENDBRANCH  14  16
ENDBRANCH   4  14
TORSDOF 3
ENDMDL
