MODEL 1
REMARK VINA RESULT:   -10.737      0.000      0.000
REMARK INTER + INTRA:         -15.245
REMARK INTER:                 -14.503
REMARK INTRA:                  -0.742
REMARK UNBOUND:                -0.742
REMARK SMILES C=CC(=O)N1CCC([C@@H]2CCNc3c(C(N)=O)c(-c4ccc(Oc5ccccc5)cc4)nn32)CC1
REMARK SMILES IDX 14 1 13 2 12 3 11 4 10 5 9 6 33 7 32 8 18 9 15 11 16 12
REMARK SMILES IDX 17 15 19 16 20 17 31 18 21 19 30 20 22 21 23 22 24 23 25 24
REMARK SMILES IDX 29 25 26 26 28 27 27 28 8 29 7 30 34 31 6 32 35 33 5 34 3 35
REMARK SMILES IDX 4 36 2 37 1 38
REMARK H PARENT 12 10 16 13 16 14
REMARK Flexibility Score: inf
ROOT
ATOM      1  C   UNL     1      19.261  33.983  13.317  1.00  0.00     0.109 A 
ATOM      2  C   UNL     1      18.086  33.673  12.661  1.00  0.00     0.138 A 
ATOM      3  N   UNL     1      16.747  33.914  13.098  1.00  0.00    -0.370 N 
ATOM      4  C   UNL     1      15.637  33.513  12.238  1.00  0.00     0.116 C 
ATOM      5  C   UNL     1      16.031  33.591  10.749  1.00  0.00     0.049 C 
ATOM      6  C   UNL     1      17.331  32.786  10.467  1.00  0.00     0.114 C 
ATOM      7  N   UNL     1      18.359  33.229  11.427  1.00  0.00    -0.245 N 
ATOM      8  N   UNL     1      19.672  33.206  11.250  1.00  0.00    -0.170 NA
ATOM      9  C   UNL     1      20.251  33.660  12.385  1.00  0.00     0.107 A 
ATOM     10  H   UNL     1      16.553  34.276  14.057  1.00  0.00     0.162 HD
ENDROOT
BRANCH   1  11
ATOM     11  C   UNL     1      19.399  34.614  14.644  1.00  0.00     0.254 C 
ATOM     12  N   UNL     1      20.115  33.961  15.692  1.00  0.00    -0.365 N 
ATOM     13  H   UNL     1      20.127  34.368  16.654  1.00  0.00     0.159 HD
ATOM     14  H   UNL     1      20.666  33.091  15.509  1.00  0.00     0.159 HD
ATOM     15  O   UNL     1      18.902  35.753  14.851  1.00  0.00    -0.269 OA
ENDBRANCH   1  11
BRANCH   9  16
ATOM     16  C   UNL     1      21.718  33.734  12.555  1.00  0.00     0.003 A 
ATOM     17  C   UNL     1      22.438  34.889  12.204  1.00  0.00     0.014 A 
ATOM     18  C   UNL     1      22.404  32.655  13.135  1.00  0.00     0.014 A 
ATOM     19  C   UNL     1      23.825  34.937  12.373  1.00  0.00     0.048 A 
ATOM     20  C   UNL     1      23.790  32.706  13.310  1.00  0.00     0.048 A 
ATOM     21  C   UNL     1      24.512  33.834  12.909  1.00  0.00     0.127 A 
BRANCH  21  22
ATOM     22  O   UNL     1      25.899  33.852  13.106  1.00  0.00    -0.457 OA
BRANCH  22  23
ATOM     23  C   UNL     1      26.796  32.866  12.669  1.00  0.00     0.127 A 
ATOM     24  C   UNL     1      26.712  32.293  11.386  1.00  0.00     0.047 A 
ATOM     25  C   UNL     1      27.773  32.406  13.561  1.00  0.00     0.047 A 
ATOM     26  C   UNL     1      27.611  31.292  11.001  1.00  0.00     0.004 A 
ATOM     27  C   UNL     1      28.671  31.406  13.174  1.00  0.00     0.004 A 
ATOM     28  C   UNL     1      28.593  30.852  11.893  1.00  0.00     0.000 A 
ENDBRANCH  22  23
ENDBRANCH  21  22
ENDBRANCH   9  16
BRANCH   6  29
ATOM     29  C   UNL     1      17.841  32.908   8.989  1.00  0.00     0.017 C 
ATOM     30  C   UNL     1      18.213  31.504   8.407  1.00  0.00     0.027 C 
ATOM     31  C   UNL     1      16.852  33.635   8.038  1.00  0.00     0.027 C 
ATOM     32  C   UNL     1      17.227  30.983   7.350  1.00  0.00     0.120 C 
ATOM     33  C   UNL     1      15.561  32.821   7.849  1.00  0.00     0.120 C 
ATOM     34  N   UNL     1      15.862  31.392   7.696  1.00  0.00    -0.339 N 
ATOM     35  C   UNL     1      14.904  30.415   8.138  1.00  0.00     0.245 C 
ATOM     36  O   UNL     1      14.405  30.520   9.290  1.00  0.00    -0.270 OA
BRANCH  35  37
ATOM     37  C   UNL     1      14.516  29.266   7.299  1.00  0.00     0.063 C 
ATOM     38  C   UNL     1      14.886  29.140   6.024  1.00  0.00     0.014 C 
ENDBRANCH  35  37
ENDBRANCH   6  29
TORSDOF 6
ENDMDL
MODEL 2
REMARK VINA RESULT:   -10.213      2.739      9.130
REMARK INTER + INTRA:         -14.537
REMARK INTER:                 -14.143
REMARK INTRA:                  -0.394
REMARK UNBOUND:                -0.742
REMARK SMILES C=CC(=O)N1CCC([C@@H]2CCNc3c(C(N)=O)c(-c4ccc(Oc5ccccc5)cc4)nn32)CC1
REMARK SMILES IDX 14 1 13 2 12 3 11 4 10 5 9 6 33 7 32 8 18 9 15 11 16 12
REMARK SMILES IDX 17 15 19 16 20 17 31 18 21 19 30 20 22 21 23 22 24 23 25 24
REMARK SMILES IDX 29 25 26 26 28 27 27 28 8 29 7 30 34 31 6 32 35 33 5 34 3 35
REMARK SMILES IDX 4 36 2 37 1 38
REMARK H PARENT 12 10 16 13 16 14
REMARK Flexibility Score: inf
ROOT
ATOM      1  C   UNL     1      17.698  34.260  14.056  1.00  0.00     0.109 A 
ATOM      2  C   UNL     1      18.582  34.449  15.100  1.00  0.00     0.138 A 
ATOM      3  N   UNL     1      18.284  34.844  16.441  1.00  0.00    -0.370 N 
ATOM      4  C   UNL     1      19.377  34.976  17.401  1.00  0.00     0.116 C 
ATOM      5  C   UNL     1      20.522  33.994  17.079  1.00  0.00     0.049 C 
ATOM      6  C   UNL     1      20.995  34.143  15.606  1.00  0.00     0.114 C 
ATOM      7  N   UNL     1      19.808  34.053  14.734  1.00  0.00    -0.245 N 
ATOM      8  N   UNL     1      19.776  33.634  13.477  1.00  0.00    -0.170 NA
ATOM      9  C   UNL     1      18.504  33.748  13.035  1.00  0.00     0.107 A 
ATOM     10  H   UNL     1      17.320  35.132  16.713  1.00  0.00     0.162 HD
ENDROOT
BRANCH   1  11
ATOM     11  C   UNL     1      16.236  34.452  14.082  1.00  0.00     0.254 C 
ATOM     12  N   UNL     1      15.371  33.575  13.362  1.00  0.00    -0.365 N 
ATOM     13  H   UNL     1      14.347  33.774  13.307  1.00  0.00     0.159 HD
ATOM     14  H   UNL     1      15.737  32.706  12.910  1.00  0.00     0.159 HD
ATOM     15  O   UNL     1      15.739  35.384  14.768  1.00  0.00    -0.269 OA
ENDBRANCH   1  11
BRANCH   9  16
ATOM     16  C   UNL     1      18.109  33.403  11.652  1.00  0.00     0.003 A 
ATOM     17  C   UNL     1      17.375  34.300  10.856  1.00  0.00     0.014 A 
ATOM     18  C   UNL     1      18.524  32.183  11.096  1.00  0.00     0.014 A 
ATOM     19  C   UNL     1      17.013  33.953   9.551  1.00  0.00     0.048 A 
ATOM     20  C   UNL     1      18.167  31.839   9.789  1.00  0.00     0.048 A 
ATOM     21  C   UNL     1      17.390  32.708   9.017  1.00  0.00     0.127 A 
BRANCH  21  22
ATOM     22  O   UNL     1      17.056  32.334   7.709  1.00  0.00    -0.457 OA
BRANCH  22  23
ATOM     23  C   UNL     1      16.394  31.152   7.344  1.00  0.00     0.127 A 
ATOM     24  C   UNL     1      15.012  30.975   7.548  1.00  0.00     0.047 A 
ATOM     25  C   UNL     1      17.146  30.101   6.807  1.00  0.00     0.047 A 
ATOM     26  C   UNL     1      14.396  29.770   7.195  1.00  0.00     0.004 A 
ATOM     27  C   UNL     1      16.529  28.897   6.453  1.00  0.00     0.004 A 
ATOM     28  C   UNL     1      15.154  28.733   6.643  1.00  0.00     0.000 A 
ENDBRANCH  22  23
ENDBRANCH  21  22
ENDBRANCH   9  16
BRANCH   6  29
ATOM     29  C   UNL     1      22.090  33.102  15.186  1.00  0.00     0.017 C 
ATOM     30  C   UNL     1      22.478  33.273  13.679  1.00  0.00     0.027 C 
ATOM     31  C   UNL     1      23.366  33.136  16.072  1.00  0.00     0.027 C 
ATOM     32  C   UNL     1      23.873  33.875  13.456  1.00  0.00     0.120 C 
ATOM     33  C   UNL     1      24.125  34.463  15.904  1.00  0.00     0.120 C 
ATOM     34  N   UNL     1      24.159  34.870  14.494  1.00  0.00    -0.339 N 
ATOM     35  C   UNL     1      24.209  36.269  14.162  1.00  0.00     0.245 C 
ATOM     36  O   UNL     1      23.396  37.061  14.709  1.00  0.00    -0.270 OA
BRANCH  35  37
ATOM     37  C   UNL     1      25.158  36.802  13.167  1.00  0.00     0.063 C 
ATOM     38  C   UNL     1      24.865  36.910  11.870  1.00  0.00     0.014 C 
ENDBRANCH  35  37
ENDBRANCH   6  29
TORSDOF 6
ENDMDL
MODEL 3
REMARK VINA RESULT:    -9.905      4.804      9.932
REMARK INTER + INTRA:         -14.120
REMARK INTER:                 -13.571
REMARK INTRA:                  -0.550
REMARK UNBOUND:                -0.742
REMARK SMILES C=CC(=O)N1CCC([C@@H]2CCNc3c(C(N)=O)c(-c4ccc(Oc5ccccc5)cc4)nn32)CC1
REMARK SMILES IDX 14 1 13 2 12 3 11 4 10 5 9 6 33 7 32 8 18 9 15 11 16 12
REMARK SMILES IDX 17 15 19 16 20 17 31 18 21 19 30 20 22 21 23 22 24 23 25 24
REMARK SMILES IDX 29 25 26 26 28 27 27 28 8 29 7 30 34 31 6 32 35 33 5 34 3 35
REMARK SMILES IDX 4 36 2 37 1 38
REMARK H PARENT 12 10 16 13 16 14
REMARK Flexibility Score: inf
ROOT
ATOM      1  C   UNL     1      15.445  34.279  14.251  1.00  0.00     0.109 A 
ATOM      2  C   UNL     1      16.054  34.717  15.409  1.00  0.00     0.138 A 
ATOM      3  N   UNL     1      15.462  34.899  16.697  1.00  0.00    -0.370 N 
ATOM      4  C   UNL     1      16.296  35.365  17.803  1.00  0.00     0.116 C 
ATOM      5  C   UNL     1      17.753  34.886  17.640  1.00  0.00     0.049 C 
ATOM      6  C   UNL     1      18.324  35.281  16.249  1.00  0.00     0.114 C 
ATOM      7  N   UNL     1      17.377  34.815  15.218  1.00  0.00    -0.245 N 
ATOM      8  N   UNL     1      17.663  34.486  13.967  1.00  0.00    -0.170 NA
ATOM      9  C   UNL     1      16.506  34.154  13.350  1.00  0.00     0.107 A 
ATOM     10  H   UNL     1      14.433  34.801  16.833  1.00  0.00     0.162 HD
ENDROOT
BRANCH   1  11
ATOM     11  C   UNL     1      14.024  33.925  14.072  1.00  0.00     0.254 C 
ATOM     12  N   UNL     1      13.610  33.088  12.993  1.00  0.00    -0.365 N 
ATOM     13  H   UNL     1      12.594  32.920  12.816  1.00  0.00     0.159 HD
ATOM     14  H   UNL     1      14.311  32.602  12.387  1.00  0.00     0.159 HD
ATOM     15  O   UNL     1      13.166  34.343  14.894  1.00  0.00    -0.269 OA
ENDBRANCH   1  11
BRANCH   9  16
ATOM     16  C   UNL     1      16.448  33.769  11.923  1.00  0.00     0.003 A 
ATOM     17  C   UNL     1      16.264  34.730  10.914  1.00  0.00     0.014 A 
ATOM     18  C   UNL     1      16.639  32.427  11.560  1.00  0.00     0.014 A 
ATOM     19  C   UNL     1      16.212  34.343   9.571  1.00  0.00     0.048 A 
ATOM     20  C   UNL     1      16.593  32.042  10.216  1.00  0.00     0.048 A 
ATOM     21  C   UNL     1      16.355  32.990   9.217  1.00  0.00     0.127 A 
BRANCH  21  22
ATOM     22  O   UNL     1      16.323  32.569   7.881  1.00  0.00    -0.457 OA
BRANCH  22  23
ATOM     23  C   UNL     1      16.176  31.243   7.449  1.00  0.00     0.127 A 
ATOM     24  C   UNL     1      17.279  30.452   7.071  1.00  0.00     0.047 A 
ATOM     25  C   UNL     1      14.886  30.710   7.346  1.00  0.00     0.047 A 
ATOM     26  C   UNL     1      17.085  29.142   6.621  1.00  0.00     0.004 A 
ATOM     27  C   UNL     1      14.694  29.399   6.897  1.00  0.00     0.004 A 
ATOM     28  C   UNL     1      15.794  28.614   6.538  1.00  0.00     0.000 A 
ENDBRANCH  22  23
ENDBRANCH  21  22
ENDBRANCH   9  16
BRANCH   6  29
ATOM     29  C   UNL     1      19.769  34.735  15.981  1.00  0.00     0.017 C 
ATOM     30  C   UNL     1      20.757  35.903  15.649  1.00  0.00     0.027 C 
ATOM     31  C   UNL     1      20.339  33.866  17.135  1.00  0.00     0.027 C 
ATOM     32  C   UNL     1      21.766  36.206  16.767  1.00  0.00     0.120 C 
ATOM     33  C   UNL     1      20.559  34.703  18.406  1.00  0.00     0.120 C 
ATOM     34  N   UNL     1      21.134  36.013  18.076  1.00  0.00    -0.339 N 
ATOM     35  C   UNL     1      20.844  37.146  18.914  1.00  0.00     0.245 C 
ATOM     36  O   UNL     1      19.649  37.387  19.230  1.00  0.00    -0.270 OA
BRANCH  35  37
ATOM     37  C   UNL     1      21.901  38.063  19.382  1.00  0.00     0.063 C 
ATOM     38  C   UNL     1      22.642  37.823  20.465  1.00  0.00     0.014 C 
ENDBRANCH  35  37
ENDBRANCH   6  29
TORSDOF 6
ENDMDL
MODEL 4
REMARK VINA RESULT:    -9.766      1.151      1.697
REMARK INTER + INTRA:         -13.934
REMARK INTER:                 -13.010
REMARK INTRA:                  -0.924
REMARK UNBOUND:                -0.742
REMARK SMILES C=CC(=O)N1CCC([C@@H]2CCNc3c(C(N)=O)c(-c4ccc(Oc5ccccc5)cc4)nn32)CC1
REMARK SMILES IDX 14 1 13 2 12 3 11 4 10 5 9 6 33 7 32 8 18 9 15 11 16 12
REMARK SMILES IDX 17 15 19 16 20 17 31 18 21 19 30 20 22 21 23 22 24 23 25 24
REMARK SMILES IDX 29 25 26 26 28 27 27 28 8 29 7 30 34 31 6 32 35 33 5 34 3 35
REMARK SMILES IDX 4 36 2 37 1 38
REMARK H PARENT 12 10 16 13 16 14
REMARK Flexibility Score: inf
ROOT
ATOM      1  C   UNL     1      19.115  33.631  13.284  1.00  0.00     0.109 A 
ATOM      2  C   UNL     1      17.943  33.384  12.600  1.00  0.00     0.138 A 
ATOM      3  N   UNL     1      16.602  33.529  13.074  1.00  0.00    -0.370 N 
ATOM      4  C   UNL     1      15.494  33.222  12.173  1.00  0.00     0.116 C 
ATOM      5  C   UNL     1      15.871  33.513  10.707  1.00  0.00     0.049 C 
ATOM      6  C   UNL     1      17.187  32.787  10.309  1.00  0.00     0.114 C 
ATOM      7  N   UNL     1      18.214  33.120  11.314  1.00  0.00    -0.245 N 
ATOM      8  N   UNL     1      19.525  33.155  11.128  1.00  0.00    -0.170 NA
ATOM      9  C   UNL     1      20.104  33.464  12.311  1.00  0.00     0.107 A 
ATOM     10  H   UNL     1      16.409  33.752  14.074  1.00  0.00     0.162 HD
ENDROOT
BRANCH   1  11
ATOM     11  C   UNL     1      19.251  34.077  14.684  1.00  0.00     0.254 C 
ATOM     12  N   UNL     1      19.446  33.133  15.736  1.00  0.00    -0.365 N 
ATOM     13  H   UNL     1      19.445  33.447  16.733  1.00  0.00     0.159 HD
ATOM     14  H   UNL     1      19.628  32.124  15.530  1.00  0.00     0.159 HD
ATOM     15  O   UNL     1      19.221  35.307  14.955  1.00  0.00    -0.269 OA
ENDBRANCH   1  11
BRANCH   9  16
ATOM     16  C   UNL     1      21.571  33.551  12.480  1.00  0.00     0.003 A 
ATOM     17  C   UNL     1      22.221  34.791  12.599  1.00  0.00     0.014 A 
ATOM     18  C   UNL     1      22.327  32.373  12.585  1.00  0.00     0.014 A 
ATOM     19  C   UNL     1      23.609  34.849  12.758  1.00  0.00     0.048 A 
ATOM     20  C   UNL     1      23.714  32.432  12.751  1.00  0.00     0.048 A 
ATOM     21  C   UNL     1      24.366  33.667  12.814  1.00  0.00     0.127 A 
BRANCH  21  22
ATOM     22  O   UNL     1      25.757  33.687  12.987  1.00  0.00    -0.457 OA
BRANCH  22  23
ATOM     23  C   UNL     1      26.430  33.455  14.195  1.00  0.00     0.127 A 
ATOM     24  C   UNL     1      25.838  33.724  15.445  1.00  0.00     0.047 A 
ATOM     25  C   UNL     1      27.749  32.988  14.149  1.00  0.00     0.047 A 
ATOM     26  C   UNL     1      26.555  33.503  16.626  1.00  0.00     0.004 A 
ATOM     27  C   UNL     1      28.463  32.767  15.331  1.00  0.00     0.004 A 
ATOM     28  C   UNL     1      27.865  33.020  16.569  1.00  0.00     0.000 A 
ENDBRANCH  22  23
ENDBRANCH  21  22
ENDBRANCH   9  16
BRANCH   6  29
ATOM     29  C   UNL     1      17.680  33.123   8.859  1.00  0.00     0.017 C 
ATOM     30  C   UNL     1      18.155  31.831   8.115  1.00  0.00     0.027 C 
ATOM     31  C   UNL     1      16.634  33.882   7.997  1.00  0.00     0.027 C 
ATOM     32  C   UNL     1      17.206  31.367   6.999  1.00  0.00     0.120 C 
ATOM     33  C   UNL     1      15.408  33.000   7.706  1.00  0.00     0.120 C 
ATOM     34  N   UNL     1      15.816  31.627   7.385  1.00  0.00    -0.339 N 
ATOM     35  C   UNL     1      14.937  30.533   7.703  1.00  0.00     0.245 C 
ATOM     36  O   UNL     1      14.437  30.462   8.857  1.00  0.00    -0.270 OA
BRANCH  35  37
ATOM     37  C   UNL     1      14.634  29.467   6.731  1.00  0.00     0.063 C 
ATOM     38  C   UNL     1      15.410  28.395   6.563  1.00  0.00     0.014 C 
ENDBRANCH  35  37
ENDBRANCH   6  29
TORSDOF 6
ENDMDL
MODEL 5
REMARK VINA RESULT:    -9.681      3.772      9.802
REMARK INTER + INTRA:         -13.819
REMARK INTER:                 -13.113
REMARK INTRA:                  -0.705
REMARK UNBOUND:                -0.742
REMARK SMILES C=CC(=O)N1CCC([C@@H]2CCNc3c(C(N)=O)c(-c4ccc(Oc5ccccc5)cc4)nn32)CC1
REMARK SMILES IDX 14 1 13 2 12 3 11 4 10 5 9 6 33 7 32 8 18 9 15 11 16 12
REMARK SMILES IDX 17 15 19 16 20 17 31 18 21 19 30 20 22 21 23 22 24 23 25 24
REMARK SMILES IDX 29 25 26 26 28 27 27 28 8 29 7 30 34 31 6 32 35 33 5 34 3 35
REMARK SMILES IDX 4 36 2 37 1 38
REMARK H PARENT 12 10 16 13 16 14
REMARK Flexibility Score: inf
ROOT
ATOM      1  C   UNL     1      16.798  34.371  14.426  1.00  0.00     0.109 A 
ATOM      2  C   UNL     1      17.555  34.680  15.538  1.00  0.00     0.138 A 
ATOM      3  N   UNL     1      17.096  34.970  16.860  1.00  0.00    -0.370 N 
ATOM      4  C   UNL     1      18.075  35.263  17.904  1.00  0.00     0.116 C 
ATOM      5  C   UNL     1      19.399  34.513  17.651  1.00  0.00     0.049 C 
ATOM      6  C   UNL     1      19.941  34.794  16.222  1.00  0.00     0.114 C 
ATOM      7  N   UNL     1      18.856  34.522  15.260  1.00  0.00    -0.245 N 
ATOM      8  N   UNL     1      18.991  34.147  13.996  1.00  0.00    -0.170 NA
ATOM      9  C   UNL     1      17.754  34.046  13.460  1.00  0.00     0.107 A 
ATOM     10  H   UNL     1      16.078  35.073  17.063  1.00  0.00     0.162 HD
ENDROOT
BRANCH   1  11
ATOM     11  C   UNL     1      15.326  34.298  14.344  1.00  0.00     0.254 C 
ATOM     12  N   UNL     1      14.690  33.466  13.375  1.00  0.00    -0.365 N 
ATOM     13  H   UNL     1      13.651  33.493  13.260  1.00  0.00     0.159 HD
ATOM     14  H   UNL     1      15.241  32.795  12.794  1.00  0.00     0.159 HD
ATOM     15  O   UNL     1      14.620  34.956  15.154  1.00  0.00    -0.269 OA
ENDBRANCH   1  11
BRANCH   9  16
ATOM     16  C   UNL     1      17.528  33.683  12.044  1.00  0.00     0.003 A 
ATOM     17  C   UNL     1      16.902  34.571  11.152  1.00  0.00     0.014 A 
ATOM     18  C   UNL     1      18.000  32.453  11.560  1.00  0.00     0.014 A 
ATOM     19  C   UNL     1      16.699  34.207   9.818  1.00  0.00     0.048 A 
ATOM     20  C   UNL     1      17.802  32.092  10.224  1.00  0.00     0.048 A 
ATOM     21  C   UNL     1      17.130  32.953   9.352  1.00  0.00     0.127 A 
BRANCH  21  22
ATOM     22  O   UNL     1      16.956  32.561   8.017  1.00  0.00    -0.457 OA
BRANCH  22  23
ATOM     23  C   UNL     1      16.429  31.333   7.592  1.00  0.00     0.127 A 
ATOM     24  C   UNL     1      17.236  30.332   7.017  1.00  0.00     0.047 A 
ATOM     25  C   UNL     1      15.050  31.121   7.701  1.00  0.00     0.047 A 
ATOM     26  C   UNL     1      16.665  29.131   6.582  1.00  0.00     0.004 A 
ATOM     27  C   UNL     1      14.481  29.919   7.266  1.00  0.00     0.004 A 
ATOM     28  C   UNL     1      15.289  28.923   6.711  1.00  0.00     0.000 A 
ENDBRANCH  22  23
ENDBRANCH  21  22
ENDBRANCH   9  16
BRANCH   6  29
ATOM     29  C   UNL     1      21.234  33.980  15.866  1.00  0.00     0.017 C 
ATOM     30  C   UNL     1      22.254  34.865  15.075  1.00  0.00     0.027 C 
ATOM     31  C   UNL     1      21.929  33.332  17.094  1.00  0.00     0.027 C 
ATOM     32  C   UNL     1      23.497  35.263  15.886  1.00  0.00     0.120 C 
ATOM     33  C   UNL     1      22.494  34.403  18.043  1.00  0.00     0.120 C 
ATOM     34  N   UNL     1      23.128  35.489  17.287  1.00  0.00    -0.339 N 
ATOM     35  C   UNL     1      23.140  36.820  17.833  1.00  0.00     0.245 C 
ATOM     36  O   UNL     1      22.068  37.314  18.273  1.00  0.00    -0.270 OA
BRANCH  35  37
ATOM     37  C   UNL     1      24.363  37.644  17.857  1.00  0.00     0.063 C 
ATOM     38  C   UNL     1      24.460  38.779  18.550  1.00  0.00     0.014 C 
ENDBRANCH  35  37
ENDBRANCH   6  29
TORSDOF 6
ENDMDL
MODEL 6
REMARK VINA RESULT:    -9.634      4.628     10.879
REMARK INTER + INTRA:         -13.755
REMARK INTER:                 -12.869
REMARK INTRA:                  -0.887
REMARK UNBOUND:                -0.742
REMARK SMILES C=CC(=O)N1CCC([C@@H]2CCNc3c(C(N)=O)c(-c4ccc(Oc5ccccc5)cc4)nn32)CC1
REMARK SMILES IDX 14 1 13 2 12 3 11 4 10 5 9 6 33 7 32 8 18 9 15 11 16 12
REMARK SMILES IDX 17 15 19 16 20 17 31 18 21 19 30 20 22 21 23 22 24 23 25 24
REMARK SMILES IDX 29 25 26 26 28 27 27 28 8 29 7 30 34 31 6 32 35 33 5 34 3 35
REMARK SMILES IDX 4 36 2 37 1 38
REMARK H PARENT 12 10 16 13 16 14
REMARK Flexibility Score: inf
ROOT
ATOM      1  C   UNL     1      22.522  33.030  13.221  1.00  0.00     0.109 A 
ATOM      2  C   UNL     1      23.785  32.621  12.844  1.00  0.00     0.138 A 
ATOM      3  N   UNL     1      24.173  31.981  11.626  1.00  0.00    -0.370 N 
ATOM      4  C   UNL     1      25.578  31.639  11.421  1.00  0.00     0.116 C 
ATOM      5  C   UNL     1      26.505  32.636  12.145  1.00  0.00     0.049 C 
ATOM      6  C   UNL     1      26.131  32.764  13.648  1.00  0.00     0.114 C 
ATOM      7  N   UNL     1      24.687  33.050  13.737  1.00  0.00    -0.245 N 
ATOM      8  N   UNL     1      24.065  33.704  14.707  1.00  0.00    -0.170 NA
ATOM      9  C   UNL     1      22.743  33.710  14.422  1.00  0.00     0.107 A 
ATOM     10  H   UNL     1      23.459  31.669  10.934  1.00  0.00     0.162 HD
ENDROOT
BRANCH   1  11
ATOM     11  C   UNL     1      21.270  32.872  12.456  1.00  0.00     0.254 C 
ATOM     12  N   UNL     1      20.592  31.617  12.416  1.00  0.00    -0.365 N 
ATOM     13  H   UNL     1      19.761  31.488  11.796  1.00  0.00     0.159 HD
ATOM     14  H   UNL     1      20.889  30.823  13.027  1.00  0.00     0.159 HD
ATOM     15  O   UNL     1      20.777  33.861  11.851  1.00  0.00    -0.269 OA
ENDBRANCH   1  11
BRANCH   9  16
ATOM     16  C   UNL     1      21.739  34.325  15.317  1.00  0.00     0.003 A 
ATOM     17  C   UNL     1      21.321  33.685  16.496  1.00  0.00     0.014 A 
ATOM     18  C   UNL     1      21.236  35.601  15.020  1.00  0.00     0.014 A 
ATOM     19  C   UNL     1      20.371  34.285  17.328  1.00  0.00     0.048 A 
ATOM     20  C   UNL     1      20.290  36.204  15.856  1.00  0.00     0.048 A 
ATOM     21  C   UNL     1      19.834  35.542  16.999  1.00  0.00     0.127 A 
BRANCH  21  22
ATOM     22  O   UNL     1      18.890  36.179  17.816  1.00  0.00    -0.457 OA
BRANCH  22  23
ATOM     23  C   UNL     1      17.502  35.988  17.758  1.00  0.00     0.127 A 
ATOM     24  C   UNL     1      16.640  36.448  18.772  1.00  0.00     0.047 A 
ATOM     25  C   UNL     1      16.968  35.273  16.679  1.00  0.00     0.047 A 
ATOM     26  C   UNL     1      15.264  36.212  18.688  1.00  0.00     0.004 A 
ATOM     27  C   UNL     1      15.592  35.039  16.596  1.00  0.00     0.004 A 
ATOM     28  C   UNL     1      14.739  35.512  17.598  1.00  0.00     0.000 A 
ENDBRANCH  22  23
ENDBRANCH  21  22
ENDBRANCH   9  16
BRANCH   6  29
ATOM     29  C   UNL     1      26.973  33.839  14.419  1.00  0.00     0.017 C 
ATOM     30  C   UNL     1      27.481  33.277  15.789  1.00  0.00     0.027 C 
ATOM     31  C   UNL     1      28.163  34.413  13.603  1.00  0.00     0.027 C 
ATOM     32  C   UNL     1      28.991  32.993  15.827  1.00  0.00     0.120 C 
ATOM     33  C   UNL     1      29.224  33.333  13.331  1.00  0.00     0.120 C 
ATOM     34  N   UNL     1      29.440  32.501  14.521  1.00  0.00    -0.339 N 
ATOM     35  C   UNL     1      29.839  31.128  14.363  1.00  0.00     0.245 C 
ATOM     36  O   UNL     1      29.204  30.391  13.562  1.00  0.00    -0.270 OA
BRANCH  35  37
ATOM     37  C   UNL     1      30.947  30.543  15.141  1.00  0.00     0.063 C 
ATOM     38  C   UNL     1      31.408  29.309  14.932  1.00  0.00     0.014 C 
ENDBRANCH  35  37
ENDBRANCH   6  29
TORSDOF 6
ENDMDL
MODEL 7
REMARK VINA RESULT:    -9.103      3.335      9.312
REMARK INTER + INTRA:         -13.038
REMARK INTER:                 -12.659
REMARK INTRA:                  -0.378
REMARK UNBOUND:                -0.742
REMARK SMILES C=CC(=O)N1CCC([C@@H]2CCNc3c(C(N)=O)c(-c4ccc(Oc5ccccc5)cc4)nn32)CC1
REMARK SMILES IDX 14 1 13 2 12 3 11 4 10 5 9 6 33 7 32 8 18 9 15 11 16 12
REMARK SMILES IDX 17 15 19 16 20 17 31 18 21 19 30 20 22 21 23 22 24 23 25 24
REMARK SMILES IDX 29 25 26 26 28 27 27 28 8 29 7 30 34 31 6 32 35 33 5 34 3 35
REMARK SMILES IDX 4 36 2 37 1 38
REMARK H PARENT 12 10 16 13 16 14
REMARK Flexibility Score: inf
ROOT
ATOM      1  C   UNL     1      18.883  34.552  16.770  1.00  0.00     0.109 A 
ATOM      2  C   UNL     1      20.105  34.766  17.374  1.00  0.00     0.138 A 
ATOM      3  N   UNL     1      20.358  35.225  18.704  1.00  0.00    -0.370 N 
ATOM      4  C   UNL     1      21.741  35.373  19.152  1.00  0.00     0.116 C 
ATOM      5  C   UNL     1      22.664  34.354  18.456  1.00  0.00     0.049 C 
ATOM      6  C   UNL     1      22.523  34.429  16.910  1.00  0.00     0.114 C 
ATOM      7  N   UNL     1      21.089  34.328  16.577  1.00  0.00    -0.245 N 
ATOM      8  N   UNL     1      20.566  33.857  15.455  1.00  0.00    -0.170 NA
ATOM      9  C   UNL     1      19.222  33.979  15.540  1.00  0.00     0.107 A 
ATOM     10  H   UNL     1      19.579  35.546  19.317  1.00  0.00     0.162 HD
ENDROOT
BRANCH   1  11
ATOM     11  C   UNL     1      17.548  34.777  17.357  1.00  0.00     0.254 C 
ATOM     12  N   UNL     1      16.981  36.086  17.401  1.00  0.00    -0.365 N 
ATOM     13  H   UNL     1      16.080  36.253  17.903  1.00  0.00     0.159 HD
ATOM     14  H   UNL     1      17.434  36.888  16.905  1.00  0.00     0.159 HD
ATOM     15  O   UNL     1      16.887  33.802  17.803  1.00  0.00    -0.269 OA
ENDBRANCH   1  11
BRANCH   9  16
ATOM     16  C   UNL     1      18.315  33.585  14.441  1.00  0.00     0.003 A 
ATOM     17  C   UNL     1      17.142  34.308  14.165  1.00  0.00     0.014 A 
ATOM     18  C   UNL     1      18.659  32.503  13.614  1.00  0.00     0.014 A 
ATOM     19  C   UNL     1      16.300  33.917  13.120  1.00  0.00     0.048 A 
ATOM     20  C   UNL     1      17.819  32.117  12.565  1.00  0.00     0.048 A 
ATOM     21  C   UNL     1      16.625  32.803  12.326  1.00  0.00     0.127 A 
BRANCH  21  22
ATOM     22  O   UNL     1      15.812  32.392  11.261  1.00  0.00    -0.457 OA
BRANCH  22  23
ATOM     23  C   UNL     1      16.103  32.564   9.900  1.00  0.00     0.127 A 
ATOM     24  C   UNL     1      16.677  33.750   9.403  1.00  0.00     0.047 A 
ATOM     25  C   UNL     1      15.765  31.541   9.007  1.00  0.00     0.047 A 
ATOM     26  C   UNL     1      16.927  33.891   8.033  1.00  0.00     0.004 A 
ATOM     27  C   UNL     1      16.017  31.683   7.639  1.00  0.00     0.004 A 
ATOM     28  C   UNL     1      16.601  32.856   7.153  1.00  0.00     0.000 A 
ENDBRANCH  22  23
ENDBRANCH  21  22
ENDBRANCH   9  16
BRANCH   6  29
ATOM     29  C   UNL     1      23.362  33.347  16.146  1.00  0.00     0.017 C 
ATOM     30  C   UNL     1      22.987  33.316  14.627  1.00  0.00     0.027 C 
ATOM     31  C   UNL     1      24.898  33.506  16.313  1.00  0.00     0.027 C 
ATOM     32  C   UNL     1      24.071  33.891  13.702  1.00  0.00     0.120 C 
ATOM     33  C   UNL     1      25.398  34.803  15.654  1.00  0.00     0.120 C 
ATOM     34  N   UNL     1      24.741  35.018  14.359  1.00  0.00    -0.339 N 
ATOM     35  C   UNL     1      24.534  36.359  13.883  1.00  0.00     0.245 C 
ATOM     36  O   UNL     1      24.019  37.213  14.654  1.00  0.00    -0.270 OA
BRANCH  35  37
ATOM     37  C   UNL     1      24.868  36.759  12.503  1.00  0.00     0.063 C 
ATOM     38  C   UNL     1      23.964  36.809  11.523  1.00  0.00     0.014 C 
ENDBRANCH  35  37
ENDBRANCH   6  29
TORSDOF 6
ENDMDL
MODEL 8
REMARK VINA RESULT:    -8.952      5.098      6.703
REMARK INTER + INTRA:         -12.834
REMARK INTER:                 -12.049
REMARK INTRA:                  -0.785
REMARK UNBOUND:                -0.742
REMARK SMILES C=CC(=O)N1CCC([C@@H]2CCNc3c(C(N)=O)c(-c4ccc(Oc5ccccc5)cc4)nn32)CC1
REMARK SMILES IDX 14 1 13 2 12 3 11 4 10 5 9 6 33 7 32 8 18 9 15 11 16 12
REMARK SMILES IDX 17 15 19 16 20 17 31 18 21 19 30 20 22 21 23 22 24 23 25 24
REMARK SMILES IDX 29 25 26 26 28 27 27 28 8 29 7 30 34 31 6 32 35 33 5 34 3 35
REMARK SMILES IDX 4 36 2 37 1 38
REMARK H PARENT 12 10 16 13 16 14
REMARK Flexibility Score: inf
ROOT
ATOM      1  C   UNL     1      24.196  33.860  16.603  1.00  0.00     0.109 A 
ATOM      2  C   UNL     1      23.021  34.294  17.184  1.00  0.00     0.138 A 
ATOM      3  N   UNL     1      22.824  34.761  18.520  1.00  0.00    -0.370 N 
ATOM      4  C   UNL     1      21.489  35.188  18.932  1.00  0.00     0.116 C 
ATOM      5  C   UNL     1      20.699  35.772  17.744  1.00  0.00     0.049 C 
ATOM      6  C   UNL     1      20.670  34.783  16.545  1.00  0.00     0.114 C 
ATOM      7  N   UNL     1      22.058  34.375  16.256  1.00  0.00    -0.245 N 
ATOM      8  N   UNL     1      22.543  33.984  15.087  1.00  0.00    -0.170 NA
ATOM      9  C   UNL     1      23.845  33.663  15.264  1.00  0.00     0.107 A 
ATOM     10  H   UNL     1      23.590  34.707  19.225  1.00  0.00     0.162 HD
ENDROOT
BRANCH   1  11
ATOM     11  C   UNL     1      25.520  33.752  17.245  1.00  0.00     0.254 C 
ATOM     12  N   UNL     1      25.775  32.751  18.228  1.00  0.00    -0.365 N 
ATOM     13  H   UNL     1      26.682  32.742  18.747  1.00  0.00     0.159 HD
ATOM     14  H   UNL     1      25.080  31.993  18.421  1.00  0.00     0.159 HD
ATOM     15  O   UNL     1      26.446  34.536  16.906  1.00  0.00    -0.269 OA
ENDBRANCH   1  11
BRANCH   9  16
ATOM     16  C   UNL     1      24.693  33.146  14.168  1.00  0.00     0.003 A 
ATOM     17  C   UNL     1      24.508  31.855  13.646  1.00  0.00     0.014 A 
ATOM     18  C   UNL     1      25.665  33.980  13.593  1.00  0.00     0.014 A 
ATOM     19  C   UNL     1      25.321  31.387  12.610  1.00  0.00     0.048 A 
ATOM     20  C   UNL     1      26.475  33.514  12.552  1.00  0.00     0.048 A 
ATOM     21  C   UNL     1      26.326  32.210  12.071  1.00  0.00     0.127 A 
BRANCH  21  22
ATOM     22  O   UNL     1      27.150  31.779  11.023  1.00  0.00    -0.457 OA
BRANCH  22  23
ATOM     23  C   UNL     1      28.518  31.488  11.130  1.00  0.00     0.127 A 
ATOM     24  C   UNL     1      28.996  30.168  11.239  1.00  0.00     0.047 A 
ATOM     25  C   UNL     1      29.428  32.551  11.181  1.00  0.00     0.047 A 
ATOM     26  C   UNL     1      30.367  29.923  11.371  1.00  0.00     0.004 A 
ATOM     27  C   UNL     1      30.798  32.305  11.312  1.00  0.00     0.004 A 
ATOM     28  C   UNL     1      31.268  30.991  11.403  1.00  0.00     0.000 A 
ENDBRANCH  22  23
ENDBRANCH  21  22
ENDBRANCH   9  16
BRANCH   6  29
ATOM     29  C   UNL     1      19.968  35.359  15.268  1.00  0.00     0.017 C 
ATOM     30  C   UNL     1      19.072  34.273  14.582  1.00  0.00     0.027 C 
ATOM     31  C   UNL     1      19.140  36.647  15.529  1.00  0.00     0.027 C 
ATOM     32  C   UNL     1      17.564  34.515  14.742  1.00  0.00     0.120 C 
ATOM     33  C   UNL     1      17.932  36.357  16.436  1.00  0.00     0.120 C 
ATOM     34  N   UNL     1      17.287  35.093  16.060  1.00  0.00    -0.339 N 
ATOM     35  C   UNL     1      16.615  34.313  17.066  1.00  0.00     0.245 C 
ATOM     36  O   UNL     1      17.207  34.066  18.150  1.00  0.00    -0.270 OA
BRANCH  35  37
ATOM     37  C   UNL     1      15.266  33.758  16.851  1.00  0.00     0.063 C 
ATOM     38  C   UNL     1      14.286  34.440  16.256  1.00  0.00     0.014 C 
ENDBRANCH  35  37
ENDBRANCH   6  29
TORSDOF 6
ENDMDL
MODEL 9
REMARK VINA RESULT:    -8.949      5.266     10.959
REMARK INTER + INTRA:         -12.830
REMARK INTER:                 -11.780
REMARK INTRA:                  -1.050
REMARK UNBOUND:                -0.742
REMARK SMILES C=CC(=O)N1CCC([C@@H]2CCNc3c(C(N)=O)c(-c4ccc(Oc5ccccc5)cc4)nn32)CC1
REMARK SMILES IDX 14 1 13 2 12 3 11 4 10 5 9 6 33 7 32 8 18 9 15 11 16 12
REMARK SMILES IDX 17 15 19 16 20 17 31 18 21 19 30 20 22 21 23 22 24 23 25 24
REMARK SMILES IDX 29 25 26 26 28 27 27 28 8 29 7 30 34 31 6 32 35 33 5 34 3 35
REMARK SMILES IDX 4 36 2 37 1 38
REMARK H PARENT 12 10 16 13 16 14
REMARK Flexibility Score: inf
ROOT
ATOM      1  C   UNL     1      23.506  32.809  13.497  1.00  0.00     0.109 A 
ATOM      2  C   UNL     1      24.645  32.403  12.831  1.00  0.00     0.138 A 
ATOM      3  N   UNL     1      24.742  31.841  11.521  1.00  0.00    -0.370 N 
ATOM      4  C   UNL     1      26.058  31.488  10.996  1.00  0.00     0.116 C 
ATOM      5  C   UNL     1      27.152  32.415  11.564  1.00  0.00     0.049 C 
ATOM      6  C   UNL     1      27.112  32.446  13.118  1.00  0.00     0.114 C 
ATOM      7  N   UNL     1      25.730  32.753  13.534  1.00  0.00    -0.245 N 
ATOM      8  N   UNL     1      25.353  33.351  14.654  1.00  0.00    -0.170 NA
ATOM      9  C   UNL     1      24.001  33.401  14.662  1.00  0.00     0.107 A 
ATOM     10  H   UNL     1      23.886  31.591  10.980  1.00  0.00     0.162 HD
ENDROOT
BRANCH   1  11
ATOM     11  C   UNL     1      22.115  32.728  13.012  1.00  0.00     0.254 C 
ATOM     12  N   UNL     1      21.147  31.934  13.697  1.00  0.00    -0.365 N 
ATOM     13  H   UNL     1      20.192  31.804  13.294  1.00  0.00     0.159 HD
ATOM     14  H   UNL     1      21.363  31.501  14.624  1.00  0.00     0.159 HD
ATOM     15  O   UNL     1      21.767  33.386  11.995  1.00  0.00    -0.269 OA
ENDBRANCH   1  11
BRANCH   9  16
ATOM     16  C   UNL     1      23.233  33.972  15.790  1.00  0.00     0.003 A 
ATOM     17  C   UNL     1      22.976  35.351  15.875  1.00  0.00     0.014 A 
ATOM     18  C   UNL     1      22.696  33.118  16.765  1.00  0.00     0.014 A 
ATOM     19  C   UNL     1      22.248  35.870  16.950  1.00  0.00     0.048 A 
ATOM     20  C   UNL     1      21.962  33.636  17.836  1.00  0.00     0.048 A 
ATOM     21  C   UNL     1      21.754  35.014  17.950  1.00  0.00     0.127 A 
BRANCH  21  22
ATOM     22  O   UNL     1      21.008  35.497  19.033  1.00  0.00    -0.457 OA
BRANCH  22  23
ATOM     23  C   UNL     1      19.665  35.900  18.981  1.00  0.00     0.127 A 
ATOM     24  C   UNL     1      19.250  37.176  19.408  1.00  0.00     0.047 A 
ATOM     25  C   UNL     1      18.706  34.981  18.538  1.00  0.00     0.047 A 
ATOM     26  C   UNL     1      17.896  37.527  19.364  1.00  0.00     0.004 A 
ATOM     27  C   UNL     1      17.354  35.334  18.494  1.00  0.00     0.004 A 
ATOM     28  C   UNL     1      16.949  36.608  18.903  1.00  0.00     0.000 A 
ENDBRANCH  22  23
ENDBRANCH  21  22
ENDBRANCH   9  16
BRANCH   6  29
ATOM     29  C   UNL     1      28.134  33.450  13.756  1.00  0.00     0.017 C 
ATOM     30  C   UNL     1      28.753  32.863  15.068  1.00  0.00     0.027 C 
ATOM     31  C   UNL     1      29.264  33.900  12.788  1.00  0.00     0.027 C 
ATOM     32  C   UNL     1      30.224  32.441  14.933  1.00  0.00     0.120 C 
ATOM     33  C   UNL     1      30.182  32.723  12.419  1.00  0.00     0.120 C 
ATOM     34  N   UNL     1      30.465  31.892  13.595  1.00  0.00    -0.339 N 
ATOM     35  C   UNL     1      30.717  30.486  13.426  1.00  0.00     0.245 C 
ATOM     36  O   UNL     1      29.926  29.799  12.726  1.00  0.00    -0.270 OA
BRANCH  35  37
ATOM     37  C   UNL     1      31.853  29.811  14.081  1.00  0.00     0.063 C 
ATOM     38  C   UNL     1      31.764  29.243  15.284  1.00  0.00     0.014 C 
ENDBRANCH  35  37
ENDBRANCH   6  29
TORSDOF 6
ENDMDL
MODEL 10
REMARK VINA RESULT:    -8.897      2.762      3.331
REMARK INTER + INTRA:         -12.760
REMARK INTER:                 -11.834
REMARK INTRA:                  -0.926
REMARK UNBOUND:                -0.742
REMARK SMILES C=CC(=O)N1CCC([C@@H]2CCNc3c(C(N)=O)c(-c4ccc(Oc5ccccc5)cc4)nn32)CC1
REMARK SMILES IDX 14 1 13 2 12 3 11 4 10 5 9 6 33 7 32 8 18 9 15 11 16 12
REMARK SMILES IDX 17 15 19 16 20 17 31 18 21 19 30 20 22 21 23 22 24 23 25 24
REMARK SMILES IDX 29 25 26 26 28 27 27 28 8 29 7 30 34 31 6 32 35 33 5 34 3 35
REMARK SMILES IDX 4 36 2 37 1 38
REMARK H PARENT 12 10 16 13 16 14
REMARK Flexibility Score: inf
ROOT
ATOM      1  C   UNL     1      18.080  33.982  14.621  1.00  0.00     0.109 A 
ATOM      2  C   UNL     1      17.123  33.684  13.672  1.00  0.00     0.138 A 
ATOM      3  N   UNL     1      15.704  33.821  13.784  1.00  0.00    -0.370 N 
ATOM      4  C   UNL     1      14.864  33.455  12.646  1.00  0.00     0.116 C 
ATOM      5  C   UNL     1      15.600  33.693  11.312  1.00  0.00     0.049 C 
ATOM      6  C   UNL     1      16.981  32.979  11.294  1.00  0.00     0.114 C 
ATOM      7  N   UNL     1      17.715  33.374  12.511  1.00  0.00    -0.245 N 
ATOM      8  N   UNL     1      19.030  33.428  12.663  1.00  0.00    -0.170 NA
ATOM      9  C   UNL     1      19.285  33.797  13.938  1.00  0.00     0.107 A 
ATOM     10  H   UNL     1      15.260  34.080  14.691  1.00  0.00     0.162 HD
ENDROOT
BRANCH   1  11
ATOM     11  C   UNL     1      17.851  34.488  15.988  1.00  0.00     0.254 C 
ATOM     12  N   UNL     1      18.433  33.836  17.115  1.00  0.00    -0.365 N 
ATOM     13  H   UNL     1      18.189  34.141  18.084  1.00  0.00     0.159 HD
ATOM     14  H   UNL     1      19.137  33.071  16.993  1.00  0.00     0.159 HD
ATOM     15  O   UNL     1      17.153  35.522  16.164  1.00  0.00    -0.269 OA
ENDBRANCH   1  11
BRANCH   9  16
ATOM     16  C   UNL     1      20.660  33.920  14.470  1.00  0.00     0.003 A 
ATOM     17  C   UNL     1      21.225  35.176  14.752  1.00  0.00     0.014 A 
ATOM     18  C   UNL     1      21.398  32.762  14.759  1.00  0.00     0.014 A 
ATOM     19  C   UNL     1      22.526  35.270  15.255  1.00  0.00     0.048 A 
ATOM     20  C   UNL     1      22.697  32.856  15.268  1.00  0.00     0.048 A 
ATOM     21  C   UNL     1      23.278  34.107  15.496  1.00  0.00     0.127 A 
BRANCH  21  22
ATOM     22  O   UNL     1      24.579  34.162  16.012  1.00  0.00    -0.457 OA
BRANCH  22  23
ATOM     23  C   UNL     1      24.982  33.662  17.260  1.00  0.00     0.127 A 
ATOM     24  C   UNL     1      26.261  33.112  17.468  1.00  0.00     0.047 A 
ATOM     25  C   UNL     1      24.060  33.668  18.313  1.00  0.00     0.047 A 
ATOM     26  C   UNL     1      26.612  32.600  18.722  1.00  0.00     0.004 A 
ATOM     27  C   UNL     1      24.413  33.156  19.566  1.00  0.00     0.004 A 
ATOM     28  C   UNL     1      25.690  32.627  19.772  1.00  0.00     0.000 A 
ENDBRANCH  22  23
ENDBRANCH  21  22
ENDBRANCH   9  16
BRANCH   6  29
ATOM     29  C   UNL     1      17.823  33.266  10.003  1.00  0.00     0.017 C 
ATOM     30  C   UNL     1      18.397  31.940   9.402  1.00  0.00     0.027 C 
ATOM     31  C   UNL     1      17.055  34.059   8.910  1.00  0.00     0.027 C 
ATOM     32  C   UNL     1      17.722  31.502   8.093  1.00  0.00     0.120 C 
ATOM     33  C   UNL     1      15.891  33.232   8.338  1.00  0.00     0.120 C 
ATOM     34  N   UNL     1      16.294  31.835   8.132  1.00  0.00    -0.339 N 
ATOM     35  C   UNL     1      15.311  30.791   8.235  1.00  0.00     0.245 C 
ATOM     36  O   UNL     1      14.545  30.763   9.236  1.00  0.00    -0.270 OA
BRANCH  35  37
ATOM     37  C   UNL     1      15.196  29.723   7.225  1.00  0.00     0.063 C 
ATOM     38  C   UNL     1      14.602  28.553   7.468  1.00  0.00     0.014 C 
ENDBRANCH  35  37
ENDBRANCH   6  29
TORSDOF 6
ENDMDL
MODEL 11
REMARK VINA RESULT:    -8.835      5.259     11.539
REMARK INTER + INTRA:         -12.676
REMARK INTER:                 -11.813
REMARK INTRA:                  -0.863
REMARK UNBOUND:                -0.742
REMARK SMILES C=CC(=O)N1CCC([C@@H]2CCNc3c(C(N)=O)c(-c4ccc(Oc5ccccc5)cc4)nn32)CC1
REMARK SMILES IDX 14 1 13 2 12 3 11 4 10 5 9 6 33 7 32 8 18 9 15 11 16 12
REMARK SMILES IDX 17 15 19 16 20 17 31 18 21 19 30 20 22 21 23 22 24 23 25 24
REMARK SMILES IDX 29 25 26 26 28 27 27 28 8 29 7 30 34 31 6 32 35 33 5 34 3 35
REMARK SMILES IDX 4 36 2 37 1 38
REMARK H PARENT 12 10 16 13 16 14
REMARK Flexibility Score: inf
ROOT
ATOM      1  C   UNL     1      24.707  34.885  13.360  1.00  0.00     0.109 A 
ATOM      2  C   UNL     1      25.922  34.619  13.958  1.00  0.00     0.138 A 
ATOM      3  N   UNL     1      27.228  34.780  13.401  1.00  0.00    -0.370 N 
ATOM      4  C   UNL     1      28.394  34.446  14.216  1.00  0.00     0.116 C 
ATOM      5  C   UNL     1      28.114  34.690  15.713  1.00  0.00     0.049 C 
ATOM      6  C   UNL     1      26.826  33.951  16.173  1.00  0.00     0.114 C 
ATOM      7  N   UNL     1      25.736  34.314  15.249  1.00  0.00    -0.245 N 
ATOM      8  N   UNL     1      24.439  34.342  15.522  1.00  0.00    -0.170 NA
ATOM      9  C   UNL     1      23.784  34.687  14.391  1.00  0.00     0.107 A 
ATOM     10  H   UNL     1      27.356  35.034  12.398  1.00  0.00     0.162 HD
ENDROOT
BRANCH   1  11
ATOM     11  C   UNL     1      24.479  35.375  11.987  1.00  0.00     0.254 C 
ATOM     12  N   UNL     1      24.810  36.715  11.625  1.00  0.00    -0.365 N 
ATOM     13  H   UNL     1      24.558  37.084  10.680  1.00  0.00     0.159 HD
ATOM     14  H   UNL     1      25.339  37.337  12.280  1.00  0.00     0.159 HD
ATOM     15  O   UNL     1      24.011  34.597  11.113  1.00  0.00    -0.269 OA
ENDBRANCH   1  11
BRANCH   9  16
ATOM     16  C   UNL     1      22.310  34.777  14.321  1.00  0.00     0.003 A 
ATOM     17  C   UNL     1      21.614  35.845  14.913  1.00  0.00     0.014 A 
ATOM     18  C   UNL     1      21.590  33.812  13.600  1.00  0.00     0.014 A 
ATOM     19  C   UNL     1      20.220  35.911  14.835  1.00  0.00     0.048 A 
ATOM     20  C   UNL     1      20.196  33.881  13.517  1.00  0.00     0.048 A 
ATOM     21  C   UNL     1      19.501  34.914  14.152  1.00  0.00     0.127 A 
BRANCH  21  22
ATOM     22  O   UNL     1      18.104  34.956  14.042  1.00  0.00    -0.457 OA
BRANCH  22  23
ATOM     23  C   UNL     1      17.198  34.670  15.073  1.00  0.00     0.127 A 
ATOM     24  C   UNL     1      17.617  34.457  16.401  1.00  0.00     0.047 A 
ATOM     25  C   UNL     1      15.839  34.546  14.757  1.00  0.00     0.047 A 
ATOM     26  C   UNL     1      16.682  34.148  17.394  1.00  0.00     0.004 A 
ATOM     27  C   UNL     1      14.906  34.239  15.752  1.00  0.00     0.004 A 
ATOM     28  C   UNL     1      15.326  34.044  17.071  1.00  0.00     0.000 A 
ENDBRANCH  22  23
ENDBRANCH  21  22
ENDBRANCH   9  16
BRANCH   6  29
ATOM     29  C   UNL     1      26.430  34.240  17.663  1.00  0.00     0.017 C 
ATOM     30  C   UNL     1      25.672  33.023  18.288  1.00  0.00     0.027 C 
ATOM     31  C   UNL     1      27.627  34.645  18.567  1.00  0.00     0.027 C 
ATOM     32  C   UNL     1      26.491  32.241  19.326  1.00  0.00     0.120 C 
ATOM     33  C   UNL     1      28.616  33.480  18.735  1.00  0.00     0.120 C 
ATOM     34  N   UNL     1      27.902  32.212  18.929  1.00  0.00    -0.339 N 
ATOM     35  C   UNL     1      28.503  30.984  18.481  1.00  0.00     0.245 C 
ATOM     36  O   UNL     1      28.969  30.919  17.312  1.00  0.00    -0.270 OA
BRANCH  35  37
ATOM     37  C   UNL     1      28.554  29.782  19.334  1.00  0.00     0.063 C 
ATOM     38  C   UNL     1      29.200  29.748  20.500  1.00  0.00     0.014 C 
ENDBRANCH  35  37
ENDBRANCH   6  29
TORSDOF 6
ENDMDL
MODEL 12
REMARK VINA RESULT:    -8.804      5.134     11.704
REMARK INTER + INTRA:         -12.633
REMARK INTER:                 -11.595
REMARK INTRA:                  -1.038
REMARK UNBOUND:                -0.742
REMARK SMILES C=CC(=O)N1CCC([C@@H]2CCNc3c(C(N)=O)c(-c4ccc(Oc5ccccc5)cc4)nn32)CC1
REMARK SMILES IDX 14 1 13 2 12 3 11 4 10 5 9 6 33 7 32 8 18 9 15 11 16 12
REMARK SMILES IDX 17 15 19 16 20 17 31 18 21 19 30 20 22 21 23 22 24 23 25 24
REMARK SMILES IDX 29 25 26 26 28 27 27 28 8 29 7 30 34 31 6 32 35 33 5 34 3 35
REMARK SMILES IDX 4 36 2 37 1 38
REMARK H PARENT 12 10 16 13 16 14
REMARK Flexibility Score: inf
ROOT
ATOM      1  C   UNL     1      24.171  34.084  13.725  1.00  0.00     0.109 A 
ATOM      2  C   UNL     1      25.373  33.634  14.234  1.00  0.00     0.138 A 
ATOM      3  N   UNL     1      26.574  33.340  13.518  1.00  0.00    -0.370 N 
ATOM      4  C   UNL     1      27.747  32.882  14.258  1.00  0.00     0.116 C 
ATOM      5  C   UNL     1      27.776  33.476  15.680  1.00  0.00     0.049 C 
ATOM      6  C   UNL     1      26.444  33.200  16.433  1.00  0.00     0.114 C 
ATOM      7  N   UNL     1      25.332  33.646  15.573  1.00  0.00    -0.245 N 
ATOM      8  N   UNL     1      24.138  34.060  15.971  1.00  0.00    -0.170 NA
ATOM      9  C   UNL     1      23.406  34.336  14.867  1.00  0.00     0.107 A 
ATOM     10  H   UNL     1      26.593  33.352  12.475  1.00  0.00     0.162 HD
ENDROOT
BRANCH   1  11
ATOM     11  C   UNL     1      23.844  34.339  12.309  1.00  0.00     0.254 C 
ATOM     12  N   UNL     1      23.377  35.619  11.887  1.00  0.00    -0.365 N 
ATOM     13  H   UNL     1      23.057  35.764  10.903  1.00  0.00     0.159 HD
ATOM     14  H   UNL     1      23.380  36.438  12.538  1.00  0.00     0.159 HD
ATOM     15  O   UNL     1      24.002  33.426  11.456  1.00  0.00    -0.269 OA
ENDBRANCH   1  11
BRANCH   9  16
ATOM     16  C   UNL     1      22.000  34.789  14.938  1.00  0.00     0.003 A 
ATOM     17  C   UNL     1      20.941  33.950  14.553  1.00  0.00     0.014 A 
ATOM     18  C   UNL     1      21.708  36.061  15.457  1.00  0.00     0.014 A 
ATOM     19  C   UNL     1      19.619  34.400  14.628  1.00  0.00     0.048 A 
ATOM     20  C   UNL     1      20.385  36.507  15.538  1.00  0.00     0.048 A 
ATOM     21  C   UNL     1      19.336  35.692  15.102  1.00  0.00     0.127 A 
BRANCH  21  22
ATOM     22  O   UNL     1      18.023  36.171  15.205  1.00  0.00    -0.457 OA
BRANCH  22  23
ATOM     23  C   UNL     1      16.902  35.402  15.550  1.00  0.00     0.127 A 
ATOM     24  C   UNL     1      15.927  35.032  14.603  1.00  0.00     0.047 A 
ATOM     25  C   UNL     1      16.726  35.036  16.890  1.00  0.00     0.047 A 
ATOM     26  C   UNL     1      14.810  34.288  14.996  1.00  0.00     0.004 A 
ATOM     27  C   UNL     1      15.609  34.291  17.281  1.00  0.00     0.004 A 
ATOM     28  C   UNL     1      14.654  33.913  16.333  1.00  0.00     0.000 A 
ENDBRANCH  22  23
ENDBRANCH  21  22
ENDBRANCH   9  16
BRANCH   6  29
ATOM     29  C   UNL     1      26.370  33.866  17.851  1.00  0.00     0.017 C 
ATOM     30  C   UNL     1      25.771  32.877  18.905  1.00  0.00     0.027 C 
ATOM     31  C   UNL     1      27.728  34.427  18.356  1.00  0.00     0.027 C 
ATOM     32  C   UNL     1      26.797  32.339  19.913  1.00  0.00     0.120 C 
ATOM     33  C   UNL     1      28.740  33.295  18.604  1.00  0.00     0.120 C 
ATOM     34  N   UNL     1      28.093  32.149  19.254  1.00  0.00    -0.339 N 
ATOM     35  C   UNL     1      28.595  30.822  19.014  1.00  0.00     0.245 C 
ATOM     36  O   UNL     1      28.803  30.448  17.828  1.00  0.00    -0.270 OA
BRANCH  35  37
ATOM     37  C   UNL     1      28.835  29.867  20.111  1.00  0.00     0.063 C 
ATOM     38  C   UNL     1      29.917  29.913  20.889  1.00  0.00     0.014 C 
ENDBRANCH  35  37
ENDBRANCH   6  29
TORSDOF 6
ENDMDL
MODEL 13
REMARK VINA RESULT:    -8.784      3.426      9.714
REMARK INTER + INTRA:         -12.607
REMARK INTER:                 -13.734
REMARK INTRA:                   1.128
REMARK UNBOUND:                -0.742
REMARK SMILES C=CC(=O)N1CCC([C@@H]2CCNc3c(C(N)=O)c(-c4ccc(Oc5ccccc5)cc4)nn32)CC1
REMARK SMILES IDX 14 1 13 2 12 3 11 4 10 5 9 6 33 7 32 8 18 9 15 11 16 12
REMARK SMILES IDX 17 15 19 16 20 17 31 18 21 19 30 20 22 21 23 22 24 23 25 24
REMARK SMILES IDX 29 25 26 26 28 27 27 28 8 29 7 30 34 31 6 32 35 33 5 34 3 35
REMARK SMILES IDX 4 36 2 37 1 38
REMARK H PARENT 12 10 16 13 16 14
REMARK Flexibility Score: inf
ROOT
ATOM      1  C   UNL     1      20.573  33.283  13.425  1.00  0.00     0.109 A 
ATOM      2  C   UNL     1      20.557  33.481  14.791  1.00  0.00     0.138 A 
ATOM      3  N   UNL     1      21.675  33.631  15.669  1.00  0.00    -0.370 N 
ATOM      4  C   UNL     1      21.435  33.844  17.094  1.00  0.00     0.116 C 
ATOM      5  C   UNL     1      20.112  34.601  17.329  1.00  0.00     0.049 C 
ATOM      6  C   UNL     1      18.924  33.894  16.618  1.00  0.00     0.114 C 
ATOM      7  N   UNL     1      19.299  33.678  15.207  1.00  0.00    -0.245 N 
ATOM      8  N   UNL     1      18.477  33.589  14.172  1.00  0.00    -0.170 NA
ATOM      9  C   UNL     1      19.223  33.350  13.070  1.00  0.00     0.107 A 
ATOM     10  H   UNL     1      22.650  33.491  15.325  1.00  0.00     0.162 HD
ENDROOT
BRANCH   1  11
ATOM     11  C   UNL     1      21.760  33.153  12.559  1.00  0.00     0.254 C 
ATOM     12  N   UNL     1      22.342  31.875  12.304  1.00  0.00    -0.365 N 
ATOM     13  H   UNL     1      23.237  31.801  11.770  1.00  0.00     0.159 HD
ATOM     14  H   UNL     1      21.869  30.995  12.613  1.00  0.00     0.159 HD
ATOM     15  O   UNL     1      22.255  34.177  12.016  1.00  0.00    -0.269 OA
ENDBRANCH   1  11
BRANCH   9  16
ATOM     16  C   UNL     1      18.625  33.155  11.731  1.00  0.00     0.003 A 
ATOM     17  C   UNL     1      17.829  34.148  11.134  1.00  0.00     0.014 A 
ATOM     18  C   UNL     1      18.904  31.982  11.012  1.00  0.00     0.014 A 
ATOM     19  C   UNL     1      17.274  33.942   9.868  1.00  0.00     0.048 A 
ATOM     20  C   UNL     1      18.353  31.780   9.743  1.00  0.00     0.048 A 
ATOM     21  C   UNL     1      17.517  32.745   9.174  1.00  0.00     0.127 A 
BRANCH  21  22
ATOM     22  O   UNL     1      16.988  32.511   7.897  1.00  0.00    -0.457 OA
BRANCH  22  23
ATOM     23  C   UNL     1      16.314  31.348   7.496  1.00  0.00     0.127 A 
ATOM     24  C   UNL     1      14.936  31.166   7.724  1.00  0.00     0.047 A 
ATOM     25  C   UNL     1      17.049  30.320   6.895  1.00  0.00     0.047 A 
ATOM     26  C   UNL     1      14.308  29.979   7.332  1.00  0.00     0.004 A 
ATOM     27  C   UNL     1      16.420  29.135   6.502  1.00  0.00     0.004 A 
ATOM     28  C   UNL     1      15.049  28.965   6.717  1.00  0.00     0.000 A 
ENDBRANCH  22  23
ENDBRANCH  21  22
ENDBRANCH   9  16
BRANCH   6  29
ATOM     29  C   UNL     1      17.567  34.669  16.733  1.00  0.00     0.017 C 
ATOM     30  C   UNL     1      16.964  34.534  18.171  1.00  0.00     0.027 C 
ATOM     31  C   UNL     1      17.659  36.167  16.332  1.00  0.00     0.027 C 
ATOM     32  C   UNL     1      17.038  35.823  19.004  1.00  0.00     0.120 C 
ATOM     33  C   UNL     1      18.544  36.953  17.314  1.00  0.00     0.120 C 
ATOM     34  N   UNL     1      18.277  36.544  18.699  1.00  0.00    -0.339 N 
ATOM     35  C   UNL     1      19.331  36.618  19.675  1.00  0.00     0.245 C 
ATOM     36  O   UNL     1      20.458  36.124  19.402  1.00  0.00    -0.270 OA
BRANCH  35  37
ATOM     37  C   UNL     1      19.123  37.219  21.006  1.00  0.00     0.063 C 
ATOM     38  C   UNL     1      18.731  38.482  21.179  1.00  0.00     0.014 C 
ENDBRANCH  35  37
ENDBRANCH   6  29
TORSDOF 6
ENDMDL
MODEL 14
REMARK VINA RESULT:    -8.756      1.540      1.920
REMARK INTER + INTRA:         -12.570
REMARK INTER:                 -11.499
REMARK INTRA:                  -1.070
REMARK UNBOUND:                -0.742
REMARK SMILES C=CC(=O)N1CCC([C@@H]2CCNc3c(C(N)=O)c(-c4ccc(Oc5ccccc5)cc4)nn32)CC1
REMARK SMILES IDX 14 1 13 2 12 3 11 4 10 5 9 6 33 7 32 8 18 9 15 11 16 12
REMARK SMILES IDX 17 15 19 16 20 17 31 18 21 19 30 20 22 21 23 22 24 23 25 24
REMARK SMILES IDX 29 25 26 26 28 27 27 28 8 29 7 30 34 31 6 32 35 33 5 34 3 35
REMARK SMILES IDX 4 36 2 37 1 38
REMARK H PARENT 12 10 16 13 16 14
REMARK Flexibility Score: inf
ROOT
ATOM      1  C   UNL     1      18.145  33.960  14.413  1.00  0.00     0.109 A 
ATOM      2  C   UNL     1      17.141  33.677  13.509  1.00  0.00     0.138 A 
ATOM      3  N   UNL     1      15.736  33.893  13.663  1.00  0.00    -0.370 N 
ATOM      4  C   UNL     1      14.839  33.530  12.568  1.00  0.00     0.116 C 
ATOM      5  C   UNL     1      15.538  33.678  11.202  1.00  0.00     0.049 C 
ATOM      6  C   UNL     1      16.879  32.892  11.167  1.00  0.00     0.114 C 
ATOM      7  N   UNL     1      17.675  33.293  12.342  1.00  0.00    -0.245 N 
ATOM      8  N   UNL     1      18.996  33.282  12.448  1.00  0.00    -0.170 NA
ATOM      9  C   UNL     1      19.315  33.685  13.699  1.00  0.00     0.107 A 
ATOM     10  H   UNL     1      15.339  34.210  14.573  1.00  0.00     0.162 HD
ENDROOT
BRANCH   1  11
ATOM     11  C   UNL     1      17.991  34.529  15.766  1.00  0.00     0.254 C 
ATOM     12  N   UNL     1      18.522  33.855  16.906  1.00  0.00    -0.365 N 
ATOM     13  H   UNL     1      18.326  34.213  17.868  1.00  0.00     0.159 HD
ATOM     14  H   UNL     1      19.142  33.019  16.799  1.00  0.00     0.159 HD
ATOM     15  O   UNL     1      17.406  35.634  15.918  1.00  0.00    -0.269 OA
ENDBRANCH   1  11
BRANCH   9  16
ATOM     16  C   UNL     1      20.712  33.756  14.179  1.00  0.00     0.003 A 
ATOM     17  C   UNL     1      21.503  34.896  13.962  1.00  0.00     0.014 A 
ATOM     18  C   UNL     1      21.244  32.689  14.921  1.00  0.00     0.014 A 
ATOM     19  C   UNL     1      22.821  34.941  14.425  1.00  0.00     0.048 A 
ATOM     20  C   UNL     1      22.560  32.738  15.390  1.00  0.00     0.048 A 
ATOM     21  C   UNL     1      23.364  33.850  15.125  1.00  0.00     0.127 A 
BRANCH  21  22
ATOM     22  O   UNL     1      24.677  33.866  15.616  1.00  0.00    -0.457 OA
BRANCH  22  23
ATOM     23  C   UNL     1      25.839  33.846  14.832  1.00  0.00     0.127 A 
ATOM     24  C   UNL     1      26.733  34.934  14.791  1.00  0.00     0.047 A 
ATOM     25  C   UNL     1      26.087  32.727  14.028  1.00  0.00     0.047 A 
ATOM     26  C   UNL     1      27.868  34.883  13.974  1.00  0.00     0.004 A 
ATOM     27  C   UNL     1      27.222  32.677  13.213  1.00  0.00     0.004 A 
ATOM     28  C   UNL     1      28.115  33.753  13.189  1.00  0.00     0.000 A 
ENDBRANCH  22  23
ENDBRANCH  21  22
ENDBRANCH   9  16
BRANCH   6  29
ATOM     29  C   UNL     1      17.689  33.084   9.838  1.00  0.00     0.017 C 
ATOM     30  C   UNL     1      18.280  31.723   9.340  1.00  0.00     0.027 C 
ATOM     31  C   UNL     1      16.881  33.765   8.699  1.00  0.00     0.027 C 
ATOM     32  C   UNL     1      17.589  31.162   8.088  1.00  0.00     0.120 C 
ATOM     33  C   UNL     1      15.725  32.868   8.225  1.00  0.00     0.120 C 
ATOM     34  N   UNL     1      16.155  31.467   8.130  1.00  0.00    -0.339 N 
ATOM     35  C   UNL     1      15.197  30.415   8.342  1.00  0.00     0.245 C 
ATOM     36  O   UNL     1      14.453  30.458   9.358  1.00  0.00    -0.270 OA
BRANCH  35  37
ATOM     37  C   UNL     1      15.086  29.263   7.429  1.00  0.00     0.063 C 
ATOM     38  C   UNL     1      14.939  29.394   6.110  1.00  0.00     0.014 C 
ENDBRANCH  35  37
ENDBRANCH   6  29
TORSDOF 6
ENDMDL
