MODEL 1
REMARK VINA RESULT:    -7.392      0.000      0.000
REMARK INTER + INTRA:         -11.228
REMARK INTER:                  -9.984
REMARK INTRA:                  -1.244
REMARK UNBOUND:                -1.244
REMARK SMILES CCN1C(=O)N(c2c(F)c(OC)cc(OC)c2F)Cc2cnc3[nH]c(CN4CCOCC4)cc3c21
REMARK SMILES IDX 3 1 4 2 5 3 6 4 19 5 20 6 21 7 22 8 23 9 24 10 25 11 33 12
REMARK SMILES IDX 34 13 35 14 2 16 1 17 7 18 8 19 17 20 9 21 10 22 14 23 18 24
REMARK SMILES IDX 13 25 11 26 12 27 15 28 16 29 26 30 27 31 28 32 32 33 29 34
REMARK SMILES IDX 31 35 30 36
REMARK H PARENT 24 15
REMARK Flexibility Score: inf
ROOT
ATOM      1  N   UNL     1      12.905  20.567  38.044  1.00  0.00    -0.293 N 
ATOM      2  C   UNL     1      12.503  19.191  38.196  1.00  0.00     0.329 C 
ATOM      3  O   UNL     1      13.243  18.259  37.776  1.00  0.00    -0.248 OA
ATOM      4  N   UNL     1      11.242  18.884  38.812  1.00  0.00    -0.284 N 
ATOM      5  C   UNL     1      10.213  19.925  38.865  1.00  0.00     0.167 C 
ATOM      6  C   UNL     1      10.818  21.265  39.182  1.00  0.00     0.015 A 
ATOM      7  C   UNL     1      10.045  22.241  39.853  1.00  0.00     0.121 A 
ATOM      8  N   UNL     1      10.566  23.466  40.139  1.00  0.00    -0.238 NA
ATOM      9  C   UNL     1      11.833  23.754  39.761  1.00  0.00     0.139 A 
ATOM     10  N   UNL     1      12.479  24.898  40.028  1.00  0.00    -0.342 N 
ATOM     11  C   UNL     1      13.718  24.732  39.520  1.00  0.00     0.031 A 
ATOM     12  C   UNL     1      13.856  23.475  38.938  1.00  0.00     0.037 A 
ATOM     13  C   UNL     1      12.625  22.854  39.088  1.00  0.00     0.043 A 
ATOM     14  C   UNL     1      12.135  21.575  38.749  1.00  0.00     0.063 A 
ATOM     15  H   UNL     1      12.110  25.728  40.542  1.00  0.00     0.168 HD
ENDROOT
BRANCH   1  16
ATOM     16  C   UNL     1      13.925  20.903  37.041  1.00  0.00     0.124 C 
ATOM     17  C   UNL     1      13.280  21.299  35.712  1.00  0.00     0.028 C 
ENDBRANCH   1  16
BRANCH   4  18
ATOM     18  C   UNL     1      10.939  17.539  39.224  1.00  0.00     0.125 A 
ATOM     19  C   UNL     1      10.352  16.644  38.315  1.00  0.00     0.192 A 
ATOM     20  C   UNL     1      11.230  17.107  40.529  1.00  0.00     0.192 A 
ATOM     21  F   UNL     1      10.086  17.046  37.046  1.00  0.00    -0.200 F 
ATOM     22  C   UNL     1      10.055  15.331  38.696  1.00  0.00     0.160 A 
ATOM     23  C   UNL     1      10.937  15.796  40.927  1.00  0.00     0.160 A 
ATOM     24  F   UNL     1      11.774  17.966  41.428  1.00  0.00    -0.200 F 
ATOM     25  C   UNL     1      10.350  14.908  40.006  1.00  0.00     0.099 A 
BRANCH  22  26
ATOM     26  O   UNL     1       9.470  14.479  37.746  1.00  0.00    -0.493 OA
ATOM     27  C   UNL     1       8.093  14.497  37.386  1.00  0.00     0.278 C 
ENDBRANCH  22  26
BRANCH  23  28
ATOM     28  O   UNL     1      11.240  15.417  42.243  1.00  0.00    -0.493 OA
ATOM     29  C   UNL     1      11.219  14.076  42.723  1.00  0.00     0.278 C 
ENDBRANCH  23  28
ENDBRANCH   4  18
BRANCH  11  30
ATOM     30  C   UNL     1      14.809  25.753  39.642  1.00  0.00     0.138 C 
BRANCH  30  31
ATOM     31  N   UNL     1      15.384  25.748  41.006  1.00  0.00    -0.293 NA
ATOM     32  C   UNL     1      15.188  27.045  41.698  1.00  0.00     0.113 C 
ATOM     33  C   UNL     1      16.808  25.354  41.026  1.00  0.00     0.113 C 
ATOM     34  C   UNL     1      16.386  28.002  41.524  1.00  0.00     0.175 C 
ATOM     35  C   UNL     1      17.722  26.455  40.434  1.00  0.00     0.175 C 
ATOM     36  O   UNL     1      17.084  27.716  40.333  1.00  0.00    -0.379 OA
ENDBRANCH  30  31
ENDBRANCH  11  30
TORSDOF 6
ENDMDL
MODEL 2
REMARK VINA RESULT:    -7.382      0.103      2.360
REMARK INTER + INTRA:         -11.215
REMARK INTER:                  -9.982
REMARK INTRA:                  -1.233
REMARK UNBOUND:                -1.244
REMARK SMILES CCN1C(=O)N(c2c(F)c(OC)cc(OC)c2F)Cc2cnc3[nH]c(CN4CCOCC4)cc3c21
REMARK SMILES IDX 3 1 4 2 5 3 6 4 19 5 20 6 21 7 22 8 23 9 24 10 25 11 33 12
REMARK SMILES IDX 34 13 35 14 2 16 1 17 7 18 8 19 17 20 9 21 10 22 14 23 18 24
REMARK SMILES IDX 13 25 11 26 12 27 15 28 16 29 26 30 27 31 28 32 32 33 29 34
REMARK SMILES IDX 31 35 30 36
REMARK H PARENT 24 15
REMARK Flexibility Score: inf
ROOT
ATOM      1  N   UNL     1      12.855  20.626  37.992  1.00  0.00    -0.293 N 
ATOM      2  C   UNL     1      12.448  19.250  38.124  1.00  0.00     0.329 C 
ATOM      3  O   UNL     1      13.154  18.325  37.635  1.00  0.00    -0.248 OA
ATOM      4  N   UNL     1      11.219  18.935  38.797  1.00  0.00    -0.284 N 
ATOM      5  C   UNL     1      10.204  19.982  38.938  1.00  0.00     0.167 C 
ATOM      6  C   UNL     1      10.840  21.307  39.263  1.00  0.00     0.015 A 
ATOM      7  C   UNL     1      10.115  22.268  40.005  1.00  0.00     0.121 A 
ATOM      8  N   UNL     1      10.663  23.479  40.300  1.00  0.00    -0.238 NA
ATOM      9  C   UNL     1      11.911  23.767  39.863  1.00  0.00     0.139 A 
ATOM     10  N   UNL     1      12.582  24.897  40.129  1.00  0.00    -0.342 N 
ATOM     11  C   UNL     1      13.790  24.735  39.550  1.00  0.00     0.031 A 
ATOM     12  C   UNL     1      13.884  23.497  38.923  1.00  0.00     0.037 A 
ATOM     13  C   UNL     1      12.656  22.882  39.120  1.00  0.00     0.043 A 
ATOM     14  C   UNL     1      12.136  21.618  38.768  1.00  0.00     0.063 A 
ATOM     15  H   UNL     1      12.250  25.713  40.688  1.00  0.00     0.168 HD
ENDROOT
BRANCH   1  16
ATOM     16  C   UNL     1      13.823  20.985  36.946  1.00  0.00     0.124 C 
ATOM     17  C   UNL     1      13.119  21.267  35.618  1.00  0.00     0.028 C 
ENDBRANCH   1  16
BRANCH   4  18
ATOM     18  C   UNL     1      10.924  17.580  39.183  1.00  0.00     0.125 A 
ATOM     19  C   UNL     1      11.207  17.146  40.488  1.00  0.00     0.192 A 
ATOM     20  C   UNL     1      10.349  16.684  38.266  1.00  0.00     0.192 A 
ATOM     21  F   UNL     1      11.744  18.011  41.388  1.00  0.00    -0.200 F 
ATOM     22  C   UNL     1      10.922  15.835  40.883  1.00  0.00     0.160 A 
ATOM     23  C   UNL     1      10.060  15.367  38.645  1.00  0.00     0.160 A 
ATOM     24  F   UNL     1      10.093  17.079  36.993  1.00  0.00    -0.200 F 
ATOM     25  C   UNL     1      10.346  14.945  39.957  1.00  0.00     0.099 A 
BRANCH  22  26
ATOM     26  O   UNL     1      11.224  15.456  42.201  1.00  0.00    -0.493 OA
ATOM     27  C   UNL     1      11.223  14.114  42.674  1.00  0.00     0.278 C 
ENDBRANCH  22  26
BRANCH  23  28
ATOM     28  O   UNL     1       9.493  14.510  37.690  1.00  0.00    -0.493 OA
ATOM     29  C   UNL     1       8.109  14.477  37.354  1.00  0.00     0.278 C 
ENDBRANCH  23  28
ENDBRANCH   4  18
BRANCH  11  30
ATOM     30  C   UNL     1      14.897  25.742  39.644  1.00  0.00     0.138 C 
BRANCH  30  31
ATOM     31  N   UNL     1      15.482  25.756  41.003  1.00  0.00    -0.293 NA
ATOM     32  C   UNL     1      15.294  27.062  41.679  1.00  0.00     0.113 C 
ATOM     33  C   UNL     1      16.906  25.360  41.017  1.00  0.00     0.113 C 
ATOM     34  C   UNL     1      16.492  28.015  41.483  1.00  0.00     0.175 C 
ATOM     35  C   UNL     1      17.818  26.451  40.404  1.00  0.00     0.175 C 
ATOM     36  O   UNL     1      17.181  27.712  40.290  1.00  0.00    -0.379 OA
ENDBRANCH  30  31
ENDBRANCH  11  30
TORSDOF 6
ENDMDL
MODEL 3
REMARK VINA RESULT:    -7.154      4.339      7.145
REMARK INTER + INTRA:         -10.907
REMARK INTER:                  -9.673
REMARK INTRA:                  -1.234
REMARK UNBOUND:                -1.244
REMARK SMILES CCN1C(=O)N(c2c(F)c(OC)cc(OC)c2F)Cc2cnc3[nH]c(CN4CCOCC4)cc3c21
REMARK SMILES IDX 3 1 4 2 5 3 6 4 19 5 20 6 21 7 22 8 23 9 24 10 25 11 33 12
REMARK SMILES IDX 34 13 35 14 2 16 1 17 7 18 8 19 17 20 9 21 10 22 14 23 18 24
REMARK SMILES IDX 13 25 11 26 12 27 15 28 16 29 26 30 27 31 28 32 32 33 29 34
REMARK SMILES IDX 31 35 30 36
REMARK H PARENT 24 15
REMARK Flexibility Score: inf
ROOT
ATOM      1  N   UNL     1      10.522  20.880  39.201  1.00  0.00    -0.293 N 
ATOM      2  C   UNL     1      10.568  20.222  40.483  1.00  0.00     0.329 C 
ATOM      3  O   UNL     1       9.595  20.310  41.281  1.00  0.00    -0.248 OA
ATOM      4  N   UNL     1      11.739  19.480  40.859  1.00  0.00    -0.284 N 
ATOM      5  C   UNL     1      13.001  19.760  40.169  1.00  0.00     0.167 C 
ATOM      6  C   UNL     1      12.774  19.977  38.697  1.00  0.00     0.015 A 
ATOM      7  C   UNL     1      13.803  19.670  37.777  1.00  0.00     0.121 A 
ATOM      8  N   UNL     1      13.627  19.870  36.442  1.00  0.00    -0.238 NA
ATOM      9  C   UNL     1      12.457  20.383  35.997  1.00  0.00     0.139 A 
ATOM     10  N   UNL     1      12.138  20.577  34.709  1.00  0.00    -0.342 N 
ATOM     11  C   UNL     1      10.873  21.046  34.725  1.00  0.00     0.031 A 
ATOM     12  C   UNL     1      10.389  21.141  36.026  1.00  0.00     0.037 A 
ATOM     13  C   UNL     1      11.428  20.721  36.844  1.00  0.00     0.043 A 
ATOM     14  C   UNL     1      11.558  20.552  38.239  1.00  0.00     0.063 A 
ATOM     15  H   UNL     1      12.731  20.381  33.873  1.00  0.00     0.168 HD
ENDROOT
BRANCH   1  16
ATOM     16  C   UNL     1       9.570  21.982  39.000  1.00  0.00     0.124 C 
ATOM     17  C   UNL     1      10.204  23.327  39.356  1.00  0.00     0.028 C 
ENDBRANCH   1  16
BRANCH   4  18
ATOM     18  C   UNL     1      11.712  18.597  41.994  1.00  0.00     0.125 A 
ATOM     19  C   UNL     1      11.492  17.223  41.808  1.00  0.00     0.192 A 
ATOM     20  C   UNL     1      11.908  19.096  43.293  1.00  0.00     0.192 A 
ATOM     21  F   UNL     1      11.321  16.729  40.554  1.00  0.00    -0.200 F 
ATOM     22  C   UNL     1      11.467  16.349  42.899  1.00  0.00     0.160 A 
ATOM     23  C   UNL     1      11.884  18.233  44.397  1.00  0.00     0.160 A 
ATOM     24  F   UNL     1      12.096  20.425  43.494  1.00  0.00    -0.200 F 
ATOM     25  C   UNL     1      11.665  16.858  44.197  1.00  0.00     0.099 A 
BRANCH  22  26
ATOM     26  O   UNL     1      11.245  14.984  42.654  1.00  0.00    -0.493 OA
ATOM     27  C   UNL     1      11.465  13.948  43.604  1.00  0.00     0.278 C 
ENDBRANCH  22  26
BRANCH  23  28
ATOM     28  O   UNL     1      12.078  18.783  45.674  1.00  0.00    -0.493 OA
ATOM     29  C   UNL     1      11.601  18.201  46.883  1.00  0.00     0.278 C 
ENDBRANCH  23  28
ENDBRANCH   4  18
BRANCH  11  30
ATOM     30  C   UNL     1      10.085  21.351  33.486  1.00  0.00     0.138 C 
BRANCH  30  31
ATOM     31  N   UNL     1      10.013  20.166  32.603  1.00  0.00    -0.293 NA
ATOM     32  C   UNL     1       9.237  20.435  31.368  1.00  0.00     0.113 C 
ATOM     33  C   UNL     1       9.494  18.967  33.295  1.00  0.00     0.113 C 
ATOM     34  C   UNL     1       7.749  20.050  31.501  1.00  0.00     0.175 C 
ATOM     35  C   UNL     1       7.979  19.079  33.592  1.00  0.00     0.175 C 
ATOM     36  O   UNL     1       7.338  20.102  32.849  1.00  0.00    -0.379 OA
ENDBRANCH  30  31
ENDBRANCH  11  30
TORSDOF 6
ENDMDL
MODEL 4
REMARK VINA RESULT:    -7.099      4.413      7.216
REMARK INTER + INTRA:         -10.834
REMARK INTER:                  -9.520
REMARK INTRA:                  -1.313
REMARK UNBOUND:                -1.244
REMARK SMILES CCN1C(=O)N(c2c(F)c(OC)cc(OC)c2F)Cc2cnc3[nH]c(CN4CCOCC4)cc3c21
REMARK SMILES IDX 3 1 4 2 5 3 6 4 19 5 20 6 21 7 22 8 23 9 24 10 25 11 33 12
REMARK SMILES IDX 34 13 35 14 2 16 1 17 7 18 8 19 17 20 9 21 10 22 14 23 18 24
REMARK SMILES IDX 13 25 11 26 12 27 15 28 16 29 26 30 27 31 28 32 32 33 29 34
REMARK SMILES IDX 31 35 30 36
REMARK H PARENT 24 15
REMARK Flexibility Score: inf
ROOT
ATOM      1  N   UNL     1      10.552  20.249  39.340  1.00  0.00    -0.293 N 
ATOM      2  C   UNL     1      10.528  19.461  40.546  1.00  0.00     0.329 C 
ATOM      3  O   UNL     1       9.511  19.471  41.295  1.00  0.00    -0.248 OA
ATOM      4  N   UNL     1      11.676  18.678  40.907  1.00  0.00    -0.284 N 
ATOM      5  C   UNL     1      12.974  19.021  40.321  1.00  0.00     0.167 C 
ATOM      6  C   UNL     1      12.829  19.392  38.870  1.00  0.00     0.015 A 
ATOM      7  C   UNL     1      13.908  19.176  37.981  1.00  0.00     0.121 A 
ATOM      8  N   UNL     1      13.805  19.515  36.666  1.00  0.00    -0.238 NA
ATOM      9  C   UNL     1      12.662  20.078  36.213  1.00  0.00     0.139 A 
ATOM     10  N   UNL     1      12.415  20.408  34.937  1.00  0.00    -0.342 N 
ATOM     11  C   UNL     1      11.151  20.879  34.932  1.00  0.00     0.031 A 
ATOM     12  C   UNL     1      10.596  20.840  36.207  1.00  0.00     0.037 A 
ATOM     13  C   UNL     1      11.588  20.332  37.033  1.00  0.00     0.043 A 
ATOM     14  C   UNL     1      11.640  20.018  38.408  1.00  0.00     0.063 A 
ATOM     15  H   UNL     1      13.054  20.296  34.120  1.00  0.00     0.168 HD
ENDROOT
BRANCH   1  16
ATOM     16  C   UNL     1       9.613  21.371  39.203  1.00  0.00     0.124 C 
ATOM     17  C   UNL     1      10.274  22.693  39.595  1.00  0.00     0.028 C 
ENDBRANCH   1  16
BRANCH   4  18
ATOM     18  C   UNL     1      11.586  17.681  41.941  1.00  0.00     0.125 A 
ATOM     19  C   UNL     1      11.773  18.046  43.284  1.00  0.00     0.192 A 
ATOM     20  C   UNL     1      11.305  16.342  41.622  1.00  0.00     0.192 A 
ATOM     21  F   UNL     1      12.024  19.342  43.604  1.00  0.00    -0.200 F 
ATOM     22  C   UNL     1      11.683  17.092  44.303  1.00  0.00     0.160 A 
ATOM     23  C   UNL     1      11.214  15.374  42.630  1.00  0.00     0.160 A 
ATOM     24  F   UNL     1      11.147  15.967  40.327  1.00  0.00    -0.200 F 
ATOM     25  C   UNL     1      11.402  15.753  43.972  1.00  0.00     0.099 A 
BRANCH  22  26
ATOM     26  O   UNL     1      11.878  17.514  45.628  1.00  0.00    -0.493 OA
ATOM     27  C   UNL     1      10.850  18.021  46.472  1.00  0.00     0.278 C 
ENDBRANCH  22  26
BRANCH  23  28
ATOM     28  O   UNL     1      10.940  14.050  42.258  1.00  0.00    -0.493 OA
ATOM     29  C   UNL     1       9.631  13.514  42.088  1.00  0.00     0.278 C 
ENDBRANCH  23  28
ENDBRANCH   4  18
BRANCH  11  30
ATOM     30  C   UNL     1      10.432  21.316  33.690  1.00  0.00     0.138 C 
BRANCH  30  31
ATOM     31  N   UNL     1      10.360  20.211  32.708  1.00  0.00    -0.293 NA
ATOM     32  C   UNL     1       9.650  20.611  31.469  1.00  0.00     0.113 C 
ATOM     33  C   UNL     1       9.770  18.980  33.274  1.00  0.00     0.113 C 
ATOM     34  C   UNL     1       8.145  20.272  31.506  1.00  0.00     0.175 C 
ATOM     35  C   UNL     1       8.247  19.124  33.516  1.00  0.00     0.175 C 
ATOM     36  O   UNL     1       7.676  20.228  32.836  1.00  0.00    -0.379 OA
ENDBRANCH  30  31
ENDBRANCH  11  30
TORSDOF 6
ENDMDL
MODEL 5
REMARK VINA RESULT:    -6.771      7.295     10.530
REMARK INTER + INTRA:         -10.390
REMARK INTER:                  -9.738
REMARK INTRA:                  -0.653
REMARK UNBOUND:                -1.244
REMARK SMILES CCN1C(=O)N(c2c(F)c(OC)cc(OC)c2F)Cc2cnc3[nH]c(CN4CCOCC4)cc3c21
REMARK SMILES IDX 3 1 4 2 5 3 6 4 19 5 20 6 21 7 22 8 23 9 24 10 25 11 33 12
REMARK SMILES IDX 34 13 35 14 2 16 1 17 7 18 8 19 17 20 9 21 10 22 14 23 18 24
REMARK SMILES IDX 13 25 11 26 12 27 15 28 16 29 26 30 27 31 28 32 32 33 29 34
REMARK SMILES IDX 31 35 30 36
REMARK H PARENT 24 15
REMARK Flexibility Score: inf
ROOT
ATOM      1  N   UNL     1      14.595  26.207  41.403  1.00  0.00    -0.293 N 
ATOM      2  C   UNL     1      13.502  26.679  42.215  1.00  0.00     0.329 C 
ATOM      3  O   UNL     1      12.560  25.900  42.534  1.00  0.00    -0.248 OA
ATOM      4  N   UNL     1      13.476  28.049  42.645  1.00  0.00    -0.284 N 
ATOM      5  C   UNL     1      14.281  29.031  41.914  1.00  0.00     0.167 C 
ATOM      6  C   UNL     1      15.621  28.457  41.540  1.00  0.00     0.015 A 
ATOM      7  C   UNL     1      16.734  29.318  41.394  1.00  0.00     0.121 A 
ATOM      8  N   UNL     1      17.954  28.825  41.043  1.00  0.00    -0.238 NA
ATOM      9  C   UNL     1      18.094  27.498  40.818  1.00  0.00     0.139 A 
ATOM     10  N   UNL     1      19.247  26.882  40.520  1.00  0.00    -0.342 N 
ATOM     11  C   UNL     1      18.936  25.572  40.437  1.00  0.00     0.031 A 
ATOM     12  C   UNL     1      17.585  25.360  40.691  1.00  0.00     0.037 A 
ATOM     13  C   UNL     1      17.045  26.616  40.924  1.00  0.00     0.043 A 
ATOM     14  C   UNL     1      15.753  27.069  41.267  1.00  0.00     0.063 A 
ATOM     15  H   UNL     1      20.187  27.320  40.406  1.00  0.00     0.168 HD
ENDROOT
BRANCH   1  16
ATOM     16  C   UNL     1      14.410  24.991  40.598  1.00  0.00     0.124 C 
ATOM     17  C   UNL     1      13.968  25.335  39.176  1.00  0.00     0.028 C 
ENDBRANCH   1  16
BRANCH   4  18
ATOM     18  C   UNL     1      12.559  28.477  43.669  1.00  0.00     0.125 A 
ATOM     19  C   UNL     1      13.051  28.997  44.876  1.00  0.00     0.192 A 
ATOM     20  C   UNL     1      11.172  28.384  43.470  1.00  0.00     0.192 A 
ATOM     21  F   UNL     1      14.391  29.110  45.069  1.00  0.00    -0.200 F 
ATOM     22  C   UNL     1      12.175  29.424  45.880  1.00  0.00     0.160 A 
ATOM     23  C   UNL     1      10.281  28.804  44.466  1.00  0.00     0.160 A 
ATOM     24  F   UNL     1      10.679  27.859  42.320  1.00  0.00    -0.200 F 
ATOM     25  C   UNL     1      10.786  29.326  45.671  1.00  0.00     0.099 A 
BRANCH  22  26
ATOM     26  O   UNL     1      12.722  29.938  47.066  1.00  0.00    -0.493 OA
ATOM     27  C   UNL     1      13.026  31.311  47.285  1.00  0.00     0.278 C 
ENDBRANCH  22  26
BRANCH  23  28
ATOM     28  O   UNL     1       8.905  28.683  44.222  1.00  0.00    -0.493 OA
ATOM     29  C   UNL     1       8.126  27.534  44.541  1.00  0.00     0.278 C 
ENDBRANCH  23  28
ENDBRANCH   4  18
BRANCH  11  30
ATOM     30  C   UNL     1      19.945  24.494  40.175  1.00  0.00     0.138 C 
BRANCH  30  31
ATOM     31  N   UNL     1      20.894  24.908  39.117  1.00  0.00    -0.293 NA
ATOM     32  C   UNL     1      20.543  24.332  37.796  1.00  0.00     0.113 C 
ATOM     33  C   UNL     1      22.300  24.610  39.460  1.00  0.00     0.113 C 
ATOM     34  C   UNL     1      21.275  23.004  37.510  1.00  0.00     0.175 C 
ATOM     35  C   UNL     1      22.602  23.093  39.407  1.00  0.00     0.175 C 
ATOM     36  O   UNL     1      21.613  22.351  38.713  1.00  0.00    -0.379 OA
ENDBRANCH  30  31
ENDBRANCH  11  30
TORSDOF 6
ENDMDL
MODEL 6
REMARK VINA RESULT:    -6.705      4.124      5.768
REMARK INTER + INTRA:         -10.301
REMARK INTER:                  -9.048
REMARK INTRA:                  -1.253
REMARK UNBOUND:                -1.244
REMARK SMILES CCN1C(=O)N(c2c(F)c(OC)cc(OC)c2F)Cc2cnc3[nH]c(CN4CCOCC4)cc3c21
REMARK SMILES IDX 3 1 4 2 5 3 6 4 19 5 20 6 21 7 22 8 23 9 24 10 25 11 33 12
REMARK SMILES IDX 34 13 35 14 2 16 1 17 7 18 8 19 17 20 9 21 10 22 14 23 18 24
REMARK SMILES IDX 13 25 11 26 12 27 15 28 16 29 26 30 27 31 28 32 32 33 29 34
REMARK SMILES IDX 31 35 30 36
REMARK H PARENT 24 15
REMARK Flexibility Score: inf
ROOT
ATOM      1  N   UNL     1      10.327  23.129  40.323  1.00  0.00    -0.293 N 
ATOM      2  C   UNL     1      10.645  21.816  39.820  1.00  0.00     0.329 C 
ATOM      3  O   UNL     1       9.802  20.880  39.900  1.00  0.00    -0.248 OA
ATOM      4  N   UNL     1      11.937  21.570  39.244  1.00  0.00    -0.284 N 
ATOM      5  C   UNL     1      13.038  22.481  39.569  1.00  0.00     0.167 C 
ATOM      6  C   UNL     1      12.564  23.909  39.598  1.00  0.00     0.015 A 
ATOM      7  C   UNL     1      13.468  24.953  39.293  1.00  0.00     0.121 A 
ATOM      8  N   UNL     1      13.067  26.254  39.325  1.00  0.00    -0.238 NA
ATOM      9  C   UNL     1      11.791  26.547  39.668  1.00  0.00     0.139 A 
ATOM     10  N   UNL     1      11.258  27.777  39.685  1.00  0.00    -0.342 N 
ATOM     11  C   UNL     1       9.965  27.597  40.026  1.00  0.00     0.031 A 
ATOM     12  C   UNL     1       9.679  26.249  40.216  1.00  0.00     0.037 A 
ATOM     13  C   UNL     1      10.872  25.577  39.994  1.00  0.00     0.043 A 
ATOM     14  C   UNL     1      11.234  24.213  39.995  1.00  0.00     0.063 A 
ATOM     15  H   UNL     1      11.735  28.677  39.457  1.00  0.00     0.168 HD
ENDROOT
BRANCH   1  16
ATOM     16  C   UNL     1       9.235  23.273  41.297  1.00  0.00     0.124 C 
ATOM     17  C   UNL     1       9.760  23.182  42.730  1.00  0.00     0.028 C 
ENDBRANCH   1  16
BRANCH   4  18
ATOM     18  C   UNL     1      12.186  20.368  38.494  1.00  0.00     0.125 A 
ATOM     19  C   UNL     1      12.161  20.400  37.091  1.00  0.00     0.192 A 
ATOM     20  C   UNL     1      12.461  19.157  39.153  1.00  0.00     0.192 A 
ATOM     21  F   UNL     1      11.917  21.569  36.445  1.00  0.00    -0.200 F 
ATOM     22  C   UNL     1      12.406  19.242  36.345  1.00  0.00     0.160 A 
ATOM     23  C   UNL     1      12.707  17.989  38.421  1.00  0.00     0.160 A 
ATOM     24  F   UNL     1      12.464  19.103  40.509  1.00  0.00    -0.200 F 
ATOM     25  C   UNL     1      12.681  18.034  37.015  1.00  0.00     0.099 A 
BRANCH  22  26
ATOM     26  O   UNL     1      12.370  19.333  34.944  1.00  0.00    -0.493 OA
ATOM     27  C   UNL     1      11.177  19.364  34.169  1.00  0.00     0.278 C 
ENDBRANCH  22  26
BRANCH  23  28
ATOM     28  O   UNL     1      12.968  16.805  39.127  1.00  0.00    -0.493 OA
ATOM     29  C   UNL     1      11.967  15.959  39.683  1.00  0.00     0.278 C 
ENDBRANCH  23  28
ENDBRANCH   4  18
BRANCH  11  30
ATOM     30  C   UNL     1       8.966  28.712  40.112  1.00  0.00     0.138 C 
BRANCH  30  31
ATOM     31  N   UNL     1       9.214  29.723  39.060  1.00  0.00    -0.293 NA
ATOM     32  C   UNL     1       8.756  31.074  39.464  1.00  0.00     0.113 C 
ATOM     33  C   UNL     1       8.636  29.345  37.754  1.00  0.00     0.113 C 
ATOM     34  C   UNL     1       7.319  31.383  38.996  1.00  0.00     0.175 C 
ATOM     35  C   UNL     1       7.091  29.441  37.753  1.00  0.00     0.175 C 
ATOM     36  O   UNL     1       6.578  30.192  38.840  1.00  0.00    -0.379 OA
ENDBRANCH  30  31
ENDBRANCH  11  30
TORSDOF 6
ENDMDL
MODEL 7
REMARK VINA RESULT:    -6.683      4.149      6.163
REMARK INTER + INTRA:         -10.271
REMARK INTER:                  -9.010
REMARK INTRA:                  -1.261
REMARK UNBOUND:                -1.244
REMARK SMILES CCN1C(=O)N(c2c(F)c(OC)cc(OC)c2F)Cc2cnc3[nH]c(CN4CCOCC4)cc3c21
REMARK SMILES IDX 3 1 4 2 5 3 6 4 19 5 20 6 21 7 22 8 23 9 24 10 25 11 33 12
REMARK SMILES IDX 34 13 35 14 2 16 1 17 7 18 8 19 17 20 9 21 10 22 14 23 18 24
REMARK SMILES IDX 13 25 11 26 12 27 15 28 16 29 26 30 27 31 28 32 32 33 29 34
REMARK SMILES IDX 31 35 30 36
REMARK H PARENT 24 15
REMARK Flexibility Score: inf
ROOT
ATOM      1  N   UNL     1      10.236  23.145  40.273  1.00  0.00    -0.293 N 
ATOM      2  C   UNL     1      10.565  21.837  39.765  1.00  0.00     0.329 C 
ATOM      3  O   UNL     1       9.715  20.904  39.806  1.00  0.00    -0.248 OA
ATOM      4  N   UNL     1      11.875  21.591  39.230  1.00  0.00    -0.284 N 
ATOM      5  C   UNL     1      12.967  22.494  39.603  1.00  0.00     0.167 C 
ATOM      6  C   UNL     1      12.499  23.923  39.632  1.00  0.00     0.015 A 
ATOM      7  C   UNL     1      13.418  24.966  39.370  1.00  0.00     0.121 A 
ATOM      8  N   UNL     1      13.021  26.268  39.404  1.00  0.00    -0.238 NA
ATOM      9  C   UNL     1      11.736  26.563  39.706  1.00  0.00     0.139 A 
ATOM     10  N   UNL     1      11.208  27.796  39.720  1.00  0.00    -0.342 N 
ATOM     11  C   UNL     1       9.903  27.618  40.014  1.00  0.00     0.031 A 
ATOM     12  C   UNL     1       9.606  26.269  40.179  1.00  0.00     0.037 A 
ATOM     13  C   UNL     1      10.803  25.594  39.990  1.00  0.00     0.043 A 
ATOM     14  C   UNL     1      11.158  24.229  39.988  1.00  0.00     0.063 A 
ATOM     15  H   UNL     1      11.697  28.696  39.519  1.00  0.00     0.168 HD
ENDROOT
BRANCH   1  16
ATOM     16  C   UNL     1       9.112  23.283  41.210  1.00  0.00     0.124 C 
ATOM     17  C   UNL     1       9.593  23.208  42.660  1.00  0.00     0.028 C 
ENDBRANCH   1  16
BRANCH   4  18
ATOM     18  C   UNL     1      12.144  20.396  38.476  1.00  0.00     0.125 A 
ATOM     19  C   UNL     1      12.422  19.193  39.144  1.00  0.00     0.192 A 
ATOM     20  C   UNL     1      12.125  20.418  37.071  1.00  0.00     0.192 A 
ATOM     21  F   UNL     1      12.421  19.158  40.502  1.00  0.00    -0.200 F 
ATOM     22  C   UNL     1      12.680  18.020  38.427  1.00  0.00     0.160 A 
ATOM     23  C   UNL     1      12.384  19.252  36.338  1.00  0.00     0.160 A 
ATOM     24  F   UNL     1      11.884  21.577  36.408  1.00  0.00    -0.200 F 
ATOM     25  C   UNL     1      12.659  18.053  37.020  1.00  0.00     0.099 A 
BRANCH  22  26
ATOM     26  O   UNL     1      12.950  16.846  39.148  1.00  0.00    -0.493 OA
ATOM     27  C   UNL     1      11.956  16.011  39.730  1.00  0.00     0.278 C 
ENDBRANCH  22  26
BRANCH  23  28
ATOM     28  O   UNL     1      12.361  19.329  34.937  1.00  0.00    -0.493 OA
ATOM     29  C   UNL     1      11.175  19.344  34.149  1.00  0.00     0.278 C 
ENDBRANCH  23  28
ENDBRANCH   4  18
BRANCH  11  30
ATOM     30  C   UNL     1       8.907  28.737  40.080  1.00  0.00     0.138 C 
BRANCH  30  31
ATOM     31  N   UNL     1       9.154  29.724  39.004  1.00  0.00    -0.293 NA
ATOM     32  C   UNL     1       8.724  31.090  39.390  1.00  0.00     0.113 C 
ATOM     33  C   UNL     1       8.547  29.330  37.716  1.00  0.00     0.113 C 
ATOM     34  C   UNL     1       7.284  31.413  38.942  1.00  0.00     0.175 C 
ATOM     35  C   UNL     1       7.003  29.452  37.740  1.00  0.00     0.175 C 
ATOM     36  O   UNL     1       6.522  30.232  38.821  1.00  0.00    -0.379 OA
ENDBRANCH  30  31
ENDBRANCH  11  30
TORSDOF 6
ENDMDL
MODEL 8
REMARK VINA RESULT:    -6.658      6.723      9.429
REMARK INTER + INTRA:         -10.238
REMARK INTER:                  -8.988
REMARK INTRA:                  -1.250
REMARK UNBOUND:                -1.244
REMARK SMILES CCN1C(=O)N(c2c(F)c(OC)cc(OC)c2F)Cc2cnc3[nH]c(CN4CCOCC4)cc3c21
REMARK SMILES IDX 3 1 4 2 5 3 6 4 19 5 20 6 21 7 22 8 23 9 24 10 25 11 33 12
REMARK SMILES IDX 34 13 35 14 2 16 1 17 7 18 8 19 17 20 9 21 10 22 14 23 18 24
REMARK SMILES IDX 13 25 11 26 12 27 15 28 16 29 26 30 27 31 28 32 32 33 29 34
REMARK SMILES IDX 31 35 30 36
REMARK H PARENT 24 15
REMARK Flexibility Score: inf
ROOT
ATOM      1  N   UNL     1      13.814  25.568  41.071  1.00  0.00    -0.293 N 
ATOM      2  C   UNL     1      12.560  25.743  41.760  1.00  0.00     0.329 C 
ATOM      3  O   UNL     1      11.732  24.792  41.830  1.00  0.00    -0.248 OA
ATOM      4  N   UNL     1      12.246  27.013  42.351  1.00  0.00    -0.284 N 
ATOM      5  C   UNL     1      12.959  28.204  41.882  1.00  0.00     0.167 C 
ATOM      6  C   UNL     1      14.414  27.902  41.646  1.00  0.00     0.015 A 
ATOM      7  C   UNL     1      15.374  28.932  41.782  1.00  0.00     0.121 A 
ATOM      8  N   UNL     1      16.694  28.687  41.562  1.00  0.00    -0.238 NA
ATOM      9  C   UNL     1      17.087  27.446  41.194  1.00  0.00     0.139 A 
ATOM     10  N   UNL     1      18.357  27.062  41.000  1.00  0.00    -0.342 N 
ATOM     11  C   UNL     1      18.288  25.747  40.705  1.00  0.00     0.031 A 
ATOM     12  C   UNL     1      16.971  25.299  40.720  1.00  0.00     0.037 A 
ATOM     13  C   UNL     1      16.199  26.410  41.026  1.00  0.00     0.043 A 
ATOM     14  C   UNL     1      14.816  26.606  41.223  1.00  0.00     0.063 A 
ATOM     15  H   UNL     1      19.216  27.649  41.086  1.00  0.00     0.168 HD
ENDROOT
BRANCH   1  16
ATOM     16  C   UNL     1      13.946  24.473  40.099  1.00  0.00     0.124 C 
ATOM     17  C   UNL     1      13.811  24.990  38.667  1.00  0.00     0.028 C 
ENDBRANCH   1  16
BRANCH   4  18
ATOM     18  C   UNL     1      11.144  27.139  43.269  1.00  0.00     0.125 A 
ATOM     19  C   UNL     1      11.380  27.121  44.653  1.00  0.00     0.192 A 
ATOM     20  C   UNL     1       9.830  27.287  42.794  1.00  0.00     0.192 A 
ATOM     21  F   UNL     1      12.649  27.000  45.122  1.00  0.00    -0.200 F 
ATOM     22  C   UNL     1      10.323  27.248  45.560  1.00  0.00     0.160 A 
ATOM     23  C   UNL     1       8.760  27.413  43.689  1.00  0.00     0.160 A 
ATOM     24  F   UNL     1       9.581  27.281  41.460  1.00  0.00    -0.200 F 
ATOM     25  C   UNL     1       9.010  27.396  45.073  1.00  0.00     0.099 A 
BRANCH  22  26
ATOM     26  O   UNL     1      10.617  27.226  46.932  1.00  0.00    -0.493 OA
ATOM     27  C   UNL     1      10.927  28.377  47.710  1.00  0.00     0.278 C 
ENDBRANCH  22  26
BRANCH  23  28
ATOM     28  O   UNL     1       7.466  27.550  43.163  1.00  0.00    -0.493 OA
ATOM     29  C   UNL     1       6.871  28.791  42.796  1.00  0.00     0.278 C 
ENDBRANCH  23  28
ENDBRANCH   4  18
BRANCH  11  30
ATOM     30  C   UNL     1      19.492  24.886  40.465  1.00  0.00     0.138 C 
BRANCH  30  31
ATOM     31  N   UNL     1      20.290  25.402  39.330  1.00  0.00    -0.293 NA
ATOM     32  C   UNL     1      20.089  24.603  38.097  1.00  0.00     0.113 C 
ATOM     33  C   UNL     1      21.729  25.519  39.648  1.00  0.00     0.113 C 
ATOM     34  C   UNL     1      21.138  23.484  37.932  1.00  0.00     0.175 C 
ATOM     35  C   UNL     1      22.414  24.135  39.753  1.00  0.00     0.175 C 
ATOM     36  O   UNL     1      21.646  23.087  39.186  1.00  0.00    -0.379 OA
ENDBRANCH  30  31
ENDBRANCH  11  30
TORSDOF 6
ENDMDL
MODEL 9
REMARK VINA RESULT:    -6.556      6.870      9.453
REMARK INTER + INTRA:         -10.099
REMARK INTER:                  -8.871
REMARK INTRA:                  -1.228
REMARK UNBOUND:                -1.244
REMARK SMILES CCN1C(=O)N(c2c(F)c(OC)cc(OC)c2F)Cc2cnc3[nH]c(CN4CCOCC4)cc3c21
REMARK SMILES IDX 3 1 4 2 5 3 6 4 19 5 20 6 21 7 22 8 23 9 24 10 25 11 33 12
REMARK SMILES IDX 34 13 35 14 2 16 1 17 7 18 8 19 17 20 9 21 10 22 14 23 18 24
REMARK SMILES IDX 13 25 11 26 12 27 15 28 16 29 26 30 27 31 28 32 32 33 29 34
REMARK SMILES IDX 31 35 30 36
REMARK H PARENT 24 15
REMARK Flexibility Score: inf
ROOT
ATOM      1  N   UNL     1      13.710  25.749  41.292  1.00  0.00    -0.293 N 
ATOM      2  C   UNL     1      12.504  26.000  42.040  1.00  0.00     0.329 C 
ATOM      3  O   UNL     1      11.638  25.092  42.179  1.00  0.00    -0.248 OA
ATOM      4  N   UNL     1      12.281  27.298  42.612  1.00  0.00    -0.284 N 
ATOM      5  C   UNL     1      13.022  28.442  42.074  1.00  0.00     0.167 C 
ATOM      6  C   UNL     1      14.447  28.065  41.772  1.00  0.00     0.015 A 
ATOM      7  C   UNL     1      15.459  29.052  41.829  1.00  0.00     0.121 A 
ATOM      8  N   UNL     1      16.754  28.739  41.547  1.00  0.00    -0.238 NA
ATOM      9  C   UNL     1      17.068  27.472  41.193  1.00  0.00     0.139 A 
ATOM     10  N   UNL     1      18.308  27.023  40.944  1.00  0.00    -0.342 N 
ATOM     11  C   UNL     1      18.162  25.706  40.689  1.00  0.00     0.031 A 
ATOM     12  C   UNL     1      16.829  25.321  40.785  1.00  0.00     0.037 A 
ATOM     13  C   UNL     1      16.126  26.475  41.100  1.00  0.00     0.043 A 
ATOM     14  C   UNL     1      14.766  26.742  41.364  1.00  0.00     0.063 A 
ATOM     15  H   UNL     1      19.196  27.571  40.969  1.00  0.00     0.168 HD
ENDROOT
BRANCH   1  16
ATOM     16  C   UNL     1      13.739  24.625  40.345  1.00  0.00     0.124 C 
ATOM     17  C   UNL     1      13.575  25.114  38.906  1.00  0.00     0.028 C 
ENDBRANCH   1  16
BRANCH   4  18
ATOM     18  C   UNL     1      11.237  27.500  43.582  1.00  0.00     0.125 A 
ATOM     19  C   UNL     1       9.917  27.717  43.155  1.00  0.00     0.192 A 
ATOM     20  C   UNL     1      11.524  27.475  44.957  1.00  0.00     0.192 A 
ATOM     21  F   UNL     1       9.627  27.722  41.829  1.00  0.00    -0.200 F 
ATOM     22  C   UNL     1       8.889  27.909  44.084  1.00  0.00     0.160 A 
ATOM     23  C   UNL     1      10.505  27.668  45.900  1.00  0.00     0.160 A 
ATOM     24  F   UNL     1      12.798  27.292  45.387  1.00  0.00    -0.200 F 
ATOM     25  C   UNL     1       9.186  27.883  45.459  1.00  0.00     0.099 A 
BRANCH  22  26
ATOM     26  O   UNL     1       7.587  28.120  43.601  1.00  0.00    -0.493 OA
ATOM     27  C   UNL     1       7.050  29.394  43.262  1.00  0.00     0.278 C 
ENDBRANCH  22  26
BRANCH  23  28
ATOM     28  O   UNL     1      10.846  27.642  47.261  1.00  0.00    -0.493 OA
ATOM     29  C   UNL     1      11.264  28.779  48.010  1.00  0.00     0.278 C 
ENDBRANCH  23  28
ENDBRANCH   4  18
BRANCH  11  30
ATOM     30  C   UNL     1      19.310  24.783  40.410  1.00  0.00     0.138 C 
BRANCH  30  31
ATOM     31  N   UNL     1      20.203  25.351  39.374  1.00  0.00    -0.293 NA
ATOM     32  C   UNL     1      20.169  24.566  38.117  1.00  0.00     0.113 C 
ATOM     33  C   UNL     1      21.592  25.522  39.847  1.00  0.00     0.113 C 
ATOM     34  C   UNL     1      21.277  23.494  38.052  1.00  0.00     0.175 C 
ATOM     35  C   UNL     1      22.321  24.166  40.008  1.00  0.00     0.175 C 
ATOM     36  O   UNL     1      21.664  23.097  39.349  1.00  0.00    -0.379 OA
ENDBRANCH  30  31
ENDBRANCH  11  30
TORSDOF 6
ENDMDL
MODEL 10
REMARK VINA RESULT:    -6.360      5.312     11.601
REMARK INTER + INTRA:          -9.835
REMARK INTER:                  -9.222
REMARK INTRA:                  -0.613
REMARK UNBOUND:                -1.244
REMARK SMILES CCN1C(=O)N(c2c(F)c(OC)cc(OC)c2F)Cc2cnc3[nH]c(CN4CCOCC4)cc3c21
REMARK SMILES IDX 3 1 4 2 5 3 6 4 19 5 20 6 21 7 22 8 23 9 24 10 25 11 33 12
REMARK SMILES IDX 34 13 35 14 2 16 1 17 7 18 8 19 17 20 9 21 10 22 14 23 18 24
REMARK SMILES IDX 13 25 11 26 12 27 15 28 16 29 26 30 27 31 28 32 32 33 29 34
REMARK SMILES IDX 31 35 30 36
REMARK H PARENT 24 15
REMARK Flexibility Score: inf
ROOT
ATOM      1  N   UNL     1      13.904  27.459  41.439  1.00  0.00    -0.293 N 
ATOM      2  C   UNL     1      13.560  28.787  41.882  1.00  0.00     0.329 C 
ATOM      3  O   UNL     1      14.272  29.775  41.551  1.00  0.00    -0.248 OA
ATOM      4  N   UNL     1      12.412  28.980  42.723  1.00  0.00    -0.284 N 
ATOM      5  C   UNL     1      11.885  27.834  43.468  1.00  0.00     0.167 C 
ATOM      6  C   UNL     1      11.914  26.586  42.628  1.00  0.00     0.015 A 
ATOM      7  C   UNL     1      10.967  25.562  42.862  1.00  0.00     0.121 A 
ATOM      8  N   UNL     1      10.981  24.418  42.124  1.00  0.00    -0.238 NA
ATOM      9  C   UNL     1      11.923  24.257  41.167  1.00  0.00     0.139 A 
ATOM     10  N   UNL     1      12.013  23.206  40.339  1.00  0.00    -0.342 N 
ATOM     11  C   UNL     1      13.050  23.486  39.523  1.00  0.00     0.031 A 
ATOM     12  C   UNL     1      13.612  24.721  39.832  1.00  0.00     0.037 A 
ATOM     13  C   UNL     1      12.882  25.207  40.908  1.00  0.00     0.043 A 
ATOM     14  C   UNL     1      12.929  26.406  41.650  1.00  0.00     0.063 A 
ATOM     15  H   UNL     1      11.395  22.365  40.314  1.00  0.00     0.168 HD
ENDROOT
BRANCH   1  16
ATOM     16  C   UNL     1      15.278  27.193  40.989  1.00  0.00     0.124 C 
ATOM     17  C   UNL     1      16.297  27.876  41.901  1.00  0.00     0.028 C 
ENDBRANCH   1  16
BRANCH   4  18
ATOM     18  C   UNL     1      11.888  30.300  42.954  1.00  0.00     0.125 A 
ATOM     19  C   UNL     1      12.360  31.062  44.034  1.00  0.00     0.192 A 
ATOM     20  C   UNL     1      10.909  30.840  42.103  1.00  0.00     0.192 A 
ATOM     21  F   UNL     1      13.321  30.556  44.850  1.00  0.00    -0.200 F 
ATOM     22  C   UNL     1      11.867  32.350  44.270  1.00  0.00     0.160 A 
ATOM     23  C   UNL     1      10.404  32.127  42.327  1.00  0.00     0.160 A 
ATOM     24  F   UNL     1      10.423  30.108  41.069  1.00  0.00    -0.200 F 
ATOM     25  C   UNL     1      10.887  32.882  43.412  1.00  0.00     0.099 A 
BRANCH  22  26
ATOM     26  O   UNL     1      12.377  33.067  45.365  1.00  0.00    -0.493 OA
ATOM     27  C   UNL     1      13.521  33.913  45.312  1.00  0.00     0.278 C 
ENDBRANCH  22  26
BRANCH  23  28
ATOM     28  O   UNL     1       9.422  32.617  41.452  1.00  0.00    -0.493 OA
ATOM     29  C   UNL     1       9.028  33.983  41.365  1.00  0.00     0.278 C 
ENDBRANCH  23  28
ENDBRANCH   4  18
BRANCH  11  30
ATOM     30  C   UNL     1      13.480  22.601  38.392  1.00  0.00     0.138 C 
BRANCH  30  31
ATOM     31  N   UNL     1      12.946  21.231  38.564  1.00  0.00    -0.293 NA
ATOM     32  C   UNL     1      14.004  20.263  38.940  1.00  0.00     0.113 C 
ATOM     33  C   UNL     1      12.198  20.754  37.382  1.00  0.00     0.113 C 
ATOM     34  C   UNL     1      14.618  19.544  37.721  1.00  0.00     0.175 C 
ATOM     35  C   UNL     1      13.135  20.448  36.188  1.00  0.00     0.175 C 
ATOM     36  O   UNL     1      14.498  20.338  36.561  1.00  0.00    -0.379 OA
ENDBRANCH  30  31
ENDBRANCH  11  30
TORSDOF 6
ENDMDL
MODEL 11
REMARK VINA RESULT:    -6.344      5.292     11.298
REMARK INTER + INTRA:          -9.813
REMARK INTER:                  -9.223
REMARK INTRA:                  -0.590
REMARK UNBOUND:                -1.244
REMARK SMILES CCN1C(=O)N(c2c(F)c(OC)cc(OC)c2F)Cc2cnc3[nH]c(CN4CCOCC4)cc3c21
REMARK SMILES IDX 3 1 4 2 5 3 6 4 19 5 20 6 21 7 22 8 23 9 24 10 25 11 33 12
REMARK SMILES IDX 34 13 35 14 2 16 1 17 7 18 8 19 17 20 9 21 10 22 14 23 18 24
REMARK SMILES IDX 13 25 11 26 12 27 15 28 16 29 26 30 27 31 28 32 32 33 29 34
REMARK SMILES IDX 31 35 30 36
REMARK H PARENT 24 15
REMARK Flexibility Score: inf
ROOT
ATOM      1  N   UNL     1      13.911  27.426  41.456  1.00  0.00    -0.293 N 
ATOM      2  C   UNL     1      13.571  28.756  41.893  1.00  0.00     0.329 C 
ATOM      3  O   UNL     1      14.294  29.739  41.568  1.00  0.00    -0.248 OA
ATOM      4  N   UNL     1      12.414  28.959  42.719  1.00  0.00    -0.284 N 
ATOM      5  C   UNL     1      11.871  27.818  43.460  1.00  0.00     0.167 C 
ATOM      6  C   UNL     1      11.901  26.568  42.623  1.00  0.00     0.015 A 
ATOM      7  C   UNL     1      10.944  25.551  42.848  1.00  0.00     0.121 A 
ATOM      8  N   UNL     1      10.959  24.406  42.112  1.00  0.00    -0.238 NA
ATOM      9  C   UNL     1      11.912  24.236  41.167  1.00  0.00     0.139 A 
ATOM     10  N   UNL     1      12.004  23.183  40.342  1.00  0.00    -0.342 N 
ATOM     11  C   UNL     1      13.053  23.455  39.537  1.00  0.00     0.031 A 
ATOM     12  C   UNL     1      13.619  24.687  39.851  1.00  0.00     0.037 A 
ATOM     13  C   UNL     1      12.881  25.180  40.917  1.00  0.00     0.043 A 
ATOM     14  C   UNL     1      12.927  26.380  41.658  1.00  0.00     0.063 A 
ATOM     15  H   UNL     1      11.381  22.347  40.311  1.00  0.00     0.168 HD
ENDROOT
BRANCH   1  16
ATOM     16  C   UNL     1      15.288  27.149  41.022  1.00  0.00     0.124 C 
ATOM     17  C   UNL     1      16.300  27.881  41.905  1.00  0.00     0.028 C 
ENDBRANCH   1  16
BRANCH   4  18
ATOM     18  C   UNL     1      11.897  30.283  42.941  1.00  0.00     0.125 A 
ATOM     19  C   UNL     1      10.925  30.809  42.076  1.00  0.00     0.192 A 
ATOM     20  C   UNL     1      12.352  31.057  44.022  1.00  0.00     0.192 A 
ATOM     21  F   UNL     1      10.463  30.060  41.041  1.00  0.00    -0.200 F 
ATOM     22  C   UNL     1      10.406  32.092  42.279  1.00  0.00     0.160 A 
ATOM     23  C   UNL     1      11.845  32.345  44.238  1.00  0.00     0.160 A 
ATOM     24  F   UNL     1      13.311  30.575  44.853  1.00  0.00    -0.200 F 
ATOM     25  C   UNL     1      10.869  32.860  43.365  1.00  0.00     0.099 A 
BRANCH  22  26
ATOM     26  O   UNL     1       9.434  32.567  41.384  1.00  0.00    -0.493 OA
ATOM     27  C   UNL     1       8.031  32.512  41.615  1.00  0.00     0.278 C 
ENDBRANCH  22  26
BRANCH  23  28
ATOM     28  O   UNL     1      12.338  33.080  45.326  1.00  0.00    -0.493 OA
ATOM     29  C   UNL     1      13.412  34.013  45.250  1.00  0.00     0.278 C 
ENDBRANCH  23  28
ENDBRANCH   4  18
BRANCH  11  30
ATOM     30  C   UNL     1      13.490  22.565  38.413  1.00  0.00     0.138 C 
BRANCH  30  31
ATOM     31  N   UNL     1      12.952  21.196  38.586  1.00  0.00    -0.293 NA
ATOM     32  C   UNL     1      14.009  20.223  38.954  1.00  0.00     0.113 C 
ATOM     33  C   UNL     1      12.195  20.725  37.408  1.00  0.00     0.113 C 
ATOM     34  C   UNL     1      14.612  19.505  37.730  1.00  0.00     0.175 C 
ATOM     35  C   UNL     1      13.123  20.417  36.208  1.00  0.00     0.175 C 
ATOM     36  O   UNL     1      14.488  20.301  36.572  1.00  0.00    -0.379 OA
ENDBRANCH  30  31
ENDBRANCH  11  30
TORSDOF 6
ENDMDL
MODEL 12
REMARK VINA RESULT:    -6.331      5.192     11.090
REMARK INTER + INTRA:          -9.795
REMARK INTER:                  -8.624
REMARK INTRA:                  -1.171
REMARK UNBOUND:                -1.244
REMARK SMILES CCN1C(=O)N(c2c(F)c(OC)cc(OC)c2F)Cc2cnc3[nH]c(CN4CCOCC4)cc3c21
REMARK SMILES IDX 3 1 4 2 5 3 6 4 19 5 20 6 21 7 22 8 23 9 24 10 25 11 33 12
REMARK SMILES IDX 34 13 35 14 2 16 1 17 7 18 8 19 17 20 9 21 10 22 14 23 18 24
REMARK SMILES IDX 13 25 11 26 12 27 15 28 16 29 26 30 27 31 28 32 32 33 29 34
REMARK SMILES IDX 31 35 30 36
REMARK H PARENT 24 15
REMARK Flexibility Score: inf
ROOT
ATOM      1  N   UNL     1      11.196  27.014  40.716  1.00  0.00    -0.293 N 
ATOM      2  C   UNL     1      10.943  28.067  41.666  1.00  0.00     0.329 C 
ATOM      3  O   UNL     1       9.766  28.479  41.865  1.00  0.00    -0.248 OA
ATOM      4  N   UNL     1      12.040  28.664  42.375  1.00  0.00    -0.284 N 
ATOM      5  C   UNL     1      13.391  28.528  41.824  1.00  0.00     0.167 C 
ATOM      6  C   UNL     1      13.608  27.147  41.266  1.00  0.00     0.015 A 
ATOM      7  C   UNL     1      14.911  26.598  41.244  1.00  0.00     0.121 A 
ATOM      8  N   UNL     1      15.136  25.357  40.732  1.00  0.00    -0.238 NA
ATOM      9  C   UNL     1      14.099  24.650  40.226  1.00  0.00     0.139 A 
ATOM     10  N   UNL     1      14.176  23.401  39.744  1.00  0.00    -0.342 N 
ATOM     11  C   UNL     1      12.912  23.075  39.404  1.00  0.00     0.031 A 
ATOM     12  C   UNL     1      12.033  24.117  39.680  1.00  0.00     0.037 A 
ATOM     13  C   UNL     1      12.814  25.139  40.201  1.00  0.00     0.043 A 
ATOM     14  C   UNL     1      12.522  26.426  40.701  1.00  0.00     0.063 A 
ATOM     15  H   UNL     1      15.027  22.802  39.672  1.00  0.00     0.168 HD
ENDROOT
BRANCH   1  16
ATOM     16  C   UNL     1      10.188  26.729  39.684  1.00  0.00     0.124 C 
ATOM     17  C   UNL     1      10.549  27.404  38.361  1.00  0.00     0.028 C 
ENDBRANCH   1  16
BRANCH   4  18
ATOM     18  C   UNL     1      11.801  29.511  43.514  1.00  0.00     0.125 A 
ATOM     19  C   UNL     1      11.929  28.992  44.812  1.00  0.00     0.192 A 
ATOM     20  C   UNL     1      11.445  30.859  43.340  1.00  0.00     0.192 A 
ATOM     21  F   UNL     1      12.293  27.695  44.990  1.00  0.00    -0.200 F 
ATOM     22  C   UNL     1      11.706  29.802  45.930  1.00  0.00     0.160 A 
ATOM     23  C   UNL     1      11.216  31.683  44.450  1.00  0.00     0.160 A 
ATOM     24  F   UNL     1      11.292  31.370  42.092  1.00  0.00    -0.200 F 
ATOM     25  C   UNL     1      11.350  31.151  45.746  1.00  0.00     0.099 A 
BRANCH  22  26
ATOM     26  O   UNL     1      11.850  29.230  47.205  1.00  0.00    -0.493 OA
ATOM     27  C   UNL     1      10.788  28.649  47.952  1.00  0.00     0.278 C 
ENDBRANCH  22  26
BRANCH  23  28
ATOM     28  O   UNL     1      10.856  33.019  44.222  1.00  0.00    -0.493 OA
ATOM     29  C   UNL     1      11.774  34.106  44.172  1.00  0.00     0.278 C 
ENDBRANCH  23  28
ENDBRANCH   4  18
BRANCH  11  30
ATOM     30  C   UNL     1      12.517  21.731  38.867  1.00  0.00     0.138 C 
BRANCH  30  31
ATOM     31  N   UNL     1      12.761  21.655  37.410  1.00  0.00    -0.293 NA
ATOM     32  C   UNL     1      11.780  20.779  36.724  1.00  0.00     0.113 C 
ATOM     33  C   UNL     1      14.144  21.248  37.081  1.00  0.00     0.113 C 
ATOM     34  C   UNL     1      12.276  19.326  36.577  1.00  0.00     0.175 C 
ATOM     35  C   UNL     1      14.399  19.754  37.399  1.00  0.00     0.175 C 
ATOM     36  O   UNL     1      13.208  19.012  37.588  1.00  0.00    -0.379 OA
ENDBRANCH  30  31
ENDBRANCH  11  30
TORSDOF 6
ENDMDL
MODEL 13
REMARK VINA RESULT:    -6.266      5.179     10.971
REMARK INTER + INTRA:          -9.708
REMARK INTER:                  -8.560
REMARK INTRA:                  -1.149
REMARK UNBOUND:                -1.244
REMARK SMILES CCN1C(=O)N(c2c(F)c(OC)cc(OC)c2F)Cc2cnc3[nH]c(CN4CCOCC4)cc3c21
REMARK SMILES IDX 3 1 4 2 5 3 6 4 19 5 20 6 21 7 22 8 23 9 24 10 25 11 33 12
REMARK SMILES IDX 34 13 35 14 2 16 1 17 7 18 8 19 17 20 9 21 10 22 14 23 18 24
REMARK SMILES IDX 13 25 11 26 12 27 15 28 16 29 26 30 27 31 28 32 32 33 29 34
REMARK SMILES IDX 31 35 30 36
REMARK H PARENT 24 15
REMARK Flexibility Score: inf
ROOT
ATOM      1  N   UNL     1      11.211  26.971  40.812  1.00  0.00    -0.293 N 
ATOM      2  C   UNL     1      10.978  28.005  41.789  1.00  0.00     0.329 C 
ATOM      3  O   UNL     1       9.805  28.406  42.027  1.00  0.00    -0.248 OA
ATOM      4  N   UNL     1      12.092  28.595  42.478  1.00  0.00    -0.284 N 
ATOM      5  C   UNL     1      13.428  28.476  41.888  1.00  0.00     0.167 C 
ATOM      6  C   UNL     1      13.636  27.107  41.299  1.00  0.00     0.015 A 
ATOM      7  C   UNL     1      14.942  26.566  41.231  1.00  0.00     0.121 A 
ATOM      8  N   UNL     1      15.158  25.336  40.690  1.00  0.00    -0.238 NA
ATOM      9  C   UNL     1      14.111  24.633  40.200  1.00  0.00     0.139 A 
ATOM     10  N   UNL     1      14.182  23.393  39.692  1.00  0.00    -0.342 N 
ATOM     11  C   UNL     1      12.910  23.066  39.382  1.00  0.00     0.031 A 
ATOM     12  C   UNL     1      12.034  24.098  39.701  1.00  0.00     0.037 A 
ATOM     13  C   UNL     1      12.824  25.115  40.219  1.00  0.00     0.043 A 
ATOM     14  C   UNL     1      12.539  26.390  40.751  1.00  0.00     0.063 A 
ATOM     15  H   UNL     1      15.034  22.800  39.587  1.00  0.00     0.168 HD
ENDROOT
BRANCH   1  16
ATOM     16  C   UNL     1      10.177  26.699  39.804  1.00  0.00     0.124 C 
ATOM     17  C   UNL     1      10.422  27.511  38.532  1.00  0.00     0.028 C 
ENDBRANCH   1  16
BRANCH   4  18
ATOM     18  C   UNL     1      11.880  29.419  43.638  1.00  0.00     0.125 A 
ATOM     19  C   UNL     1      11.539  30.772  43.483  1.00  0.00     0.192 A 
ATOM     20  C   UNL     1      12.005  28.882  44.931  1.00  0.00     0.192 A 
ATOM     21  F   UNL     1      11.395  31.295  42.237  1.00  0.00    -0.200 F 
ATOM     22  C   UNL     1      11.323  31.588  44.598  1.00  0.00     0.160 A 
ATOM     23  C   UNL     1      11.795  29.686  46.058  1.00  0.00     0.160 A 
ATOM     24  F   UNL     1      12.359  27.583  45.099  1.00  0.00    -0.200 F 
ATOM     25  C   UNL     1      11.451  31.040  45.889  1.00  0.00     0.099 A 
BRANCH  22  26
ATOM     26  O   UNL     1      10.982  32.933  44.383  1.00  0.00    -0.493 OA
ATOM     27  C   UNL     1      11.925  33.988  44.230  1.00  0.00     0.278 C 
ENDBRANCH  22  26
BRANCH  23  28
ATOM     28  O   UNL     1      11.940  29.103  47.326  1.00  0.00    -0.493 OA
ATOM     29  C   UNL     1      10.922  29.071  48.322  1.00  0.00     0.278 C 
ENDBRANCH  23  28
ENDBRANCH   4  18
BRANCH  11  30
ATOM     30  C   UNL     1      12.508  21.730  38.831  1.00  0.00     0.138 C 
BRANCH  30  31
ATOM     31  N   UNL     1      12.777  21.658  37.377  1.00  0.00    -0.293 NA
ATOM     32  C   UNL     1      11.806  20.787  36.672  1.00  0.00     0.113 C 
ATOM     33  C   UNL     1      14.164  21.249  37.071  1.00  0.00     0.113 C 
ATOM     34  C   UNL     1      12.302  19.333  36.529  1.00  0.00     0.175 C 
ATOM     35  C   UNL     1      14.411  19.754  37.389  1.00  0.00     0.175 C 
ATOM     36  O   UNL     1      13.215  19.013  37.555  1.00  0.00    -0.379 OA
ENDBRANCH  30  31
ENDBRANCH  11  30
TORSDOF 6
ENDMDL
MODEL 14
REMARK VINA RESULT:    -6.249      4.132      9.626
REMARK INTER + INTRA:          -9.685
REMARK INTER:                  -8.525
REMARK INTRA:                  -1.160
REMARK UNBOUND:                -1.244
REMARK SMILES CCN1C(=O)N(c2c(F)c(OC)cc(OC)c2F)Cc2cnc3[nH]c(CN4CCOCC4)cc3c21
REMARK SMILES IDX 3 1 4 2 5 3 6 4 19 5 20 6 21 7 22 8 23 9 24 10 25 11 33 12
REMARK SMILES IDX 34 13 35 14 2 16 1 17 7 18 8 19 17 20 9 21 10 22 14 23 18 24
REMARK SMILES IDX 13 25 11 26 12 27 15 28 16 29 26 30 27 31 28 32 32 33 29 34
REMARK SMILES IDX 31 35 30 36
REMARK H PARENT 24 15
REMARK Flexibility Score: inf
ROOT
ATOM      1  N   UNL     1      12.576  22.581  38.685  1.00  0.00    -0.293 N 
ATOM      2  C   UNL     1      12.867  23.915  39.147  1.00  0.00     0.329 C 
ATOM      3  O   UNL     1      13.786  24.591  38.607  1.00  0.00    -0.248 OA
ATOM      4  N   UNL     1      12.119  24.467  40.242  1.00  0.00    -0.284 N 
ATOM      5  C   UNL     1      11.411  23.553  41.141  1.00  0.00     0.167 C 
ATOM      6  C   UNL     1      10.768  22.431  40.372  1.00  0.00     0.015 A 
ATOM      7  C   UNL     1       9.601  21.813  40.879  1.00  0.00     0.121 A 
ATOM      8  N   UNL     1       9.008  20.787  40.209  1.00  0.00    -0.238 NA
ATOM      9  C   UNL     1       9.554  20.347  39.052  1.00  0.00     0.139 A 
ATOM     10  N   UNL     1       9.041  19.384  38.272  1.00  0.00    -0.342 N 
ATOM     11  C   UNL     1       9.870  19.311  37.210  1.00  0.00     0.031 A 
ATOM     12  C   UNL     1      10.905  20.235  37.317  1.00  0.00     0.037 A 
ATOM     13  C   UNL     1      10.699  20.893  38.521  1.00  0.00     0.043 A 
ATOM     14  C   UNL     1      11.368  21.947  39.178  1.00  0.00     0.063 A 
ATOM     15  H   UNL     1       8.172  18.831  38.438  1.00  0.00     0.168 HD
ENDROOT
BRANCH   1  16
ATOM     16  C   UNL     1      13.596  21.856  37.914  1.00  0.00     0.124 C 
ATOM     17  C   UNL     1      14.224  20.738  38.747  1.00  0.00     0.028 C 
ENDBRANCH   1  16
BRANCH   4  18
ATOM     18  C   UNL     1      12.194  25.872  40.543  1.00  0.00     0.125 A 
ATOM     19  C   UNL     1      11.164  26.732  40.129  1.00  0.00     0.192 A 
ATOM     20  C   UNL     1      13.287  26.394  41.254  1.00  0.00     0.192 A 
ATOM     21  F   UNL     1      10.093  26.234  39.459  1.00  0.00    -0.200 F 
ATOM     22  C   UNL     1      11.217  28.100  40.418  1.00  0.00     0.160 A 
ATOM     23  C   UNL     1      13.356  27.761  41.549  1.00  0.00     0.160 A 
ATOM     24  F   UNL     1      14.303  25.581  41.639  1.00  0.00    -0.200 F 
ATOM     25  C   UNL     1      12.317  28.613  41.131  1.00  0.00     0.099 A 
BRANCH  22  26
ATOM     26  O   UNL     1      10.159  28.913  39.982  1.00  0.00    -0.493 OA
ATOM     27  C   UNL     1       9.809  30.163  40.566  1.00  0.00     0.278 C 
ENDBRANCH  22  26
BRANCH  23  28
ATOM     28  O   UNL     1      14.473  28.234  42.255  1.00  0.00    -0.493 OA
ATOM     29  C   UNL     1      15.765  28.427  41.687  1.00  0.00     0.278 C 
ENDBRANCH  23  28
ENDBRANCH   4  18
BRANCH  11  30
ATOM     30  C   UNL     1       9.647  18.396  36.043  1.00  0.00     0.138 C 
BRANCH  30  31
ATOM     31  N   UNL     1       8.334  18.659  35.413  1.00  0.00    -0.293 NA
ATOM     32  C   UNL     1       7.991  17.641  34.390  1.00  0.00     0.113 C 
ATOM     33  C   UNL     1       8.232  20.021  34.849  1.00  0.00     0.113 C 
ATOM     34  C   UNL     1       8.418  18.057  32.967  1.00  0.00     0.175 C 
ATOM     35  C   UNL     1       9.095  20.187  33.574  1.00  0.00     0.175 C 
ATOM     36  O   UNL     1       9.506  18.953  33.013  1.00  0.00    -0.379 OA
ENDBRANCH  30  31
ENDBRANCH  11  30
TORSDOF 6
ENDMDL
MODEL 15
REMARK VINA RESULT:    -6.124      3.069      4.593
REMARK INTER + INTRA:          -9.516
REMARK INTER:                  -8.506
REMARK INTRA:                  -1.009
REMARK UNBOUND:                -1.244
REMARK SMILES CCN1C(=O)N(c2c(F)c(OC)cc(OC)c2F)Cc2cnc3[nH]c(CN4CCOCC4)cc3c21
REMARK SMILES IDX 3 1 4 2 5 3 6 4 19 5 20 6 21 7 22 8 23 9 24 10 25 11 33 12
REMARK SMILES IDX 34 13 35 14 2 16 1 17 7 18 8 19 17 20 9 21 10 22 14 23 18 24
REMARK SMILES IDX 13 25 11 26 12 27 15 28 16 29 26 30 27 31 28 32 32 33 29 34
REMARK SMILES IDX 31 35 30 36
REMARK H PARENT 24 15
REMARK Flexibility Score: inf
ROOT
ATOM      1  N   UNL     1      12.787  23.843  39.387  1.00  0.00    -0.293 N 
ATOM      2  C   UNL     1      12.991  22.417  39.400  1.00  0.00     0.329 C 
ATOM      3  O   UNL     1      14.159  21.939  39.400  1.00  0.00    -0.248 OA
ATOM      4  N   UNL     1      11.856  21.537  39.393  1.00  0.00    -0.284 N 
ATOM      5  C   UNL     1      10.566  22.056  38.930  1.00  0.00     0.167 C 
ATOM      6  C   UNL     1      10.340  23.458  39.428  1.00  0.00     0.015 A 
ATOM      7  C   UNL     1       9.020  23.922  39.636  1.00  0.00     0.121 A 
ATOM      8  N   UNL     1       8.789  25.190  40.073  1.00  0.00    -0.238 NA
ATOM      9  C   UNL     1       9.837  26.017  40.296  1.00  0.00     0.139 A 
ATOM     10  N   UNL     1       9.748  27.266  40.777  1.00  0.00    -0.342 N 
ATOM     11  C   UNL     1      11.023  27.692  40.891  1.00  0.00     0.031 A 
ATOM     12  C   UNL     1      11.919  26.706  40.489  1.00  0.00     0.037 A 
ATOM     13  C   UNL     1      11.140  25.629  40.093  1.00  0.00     0.043 A 
ATOM     14  C   UNL     1      11.442  24.333  39.624  1.00  0.00     0.063 A 
ATOM     15  H   UNL     1       8.880  27.785  41.033  1.00  0.00     0.168 HD
ENDROOT
BRANCH   1  16
ATOM     16  C   UNL     1      13.883  24.715  38.940  1.00  0.00     0.124 C 
ATOM     17  C   UNL     1      14.851  25.011  40.085  1.00  0.00     0.028 C 
ENDBRANCH   1  16
BRANCH   4  18
ATOM     18  C   UNL     1      12.015  20.136  39.680  1.00  0.00     0.125 A 
ATOM     19  C   UNL     1      12.088  19.698  41.012  1.00  0.00     0.192 A 
ATOM     20  C   UNL     1      12.094  19.196  38.638  1.00  0.00     0.192 A 
ATOM     21  F   UNL     1      11.992  20.597  42.026  1.00  0.00    -0.200 F 
ATOM     22  C   UNL     1      12.237  18.340  41.310  1.00  0.00     0.160 A 
ATOM     23  C   UNL     1      12.246  17.833  38.921  1.00  0.00     0.160 A 
ATOM     24  F   UNL     1      12.051  19.605  37.345  1.00  0.00    -0.200 F 
ATOM     25  C   UNL     1      12.315  17.406  40.260  1.00  0.00     0.099 A 
BRANCH  22  26
ATOM     26  O   UNL     1      12.302  17.958  42.660  1.00  0.00    -0.493 OA
ATOM     27  C   UNL     1      11.464  16.979  43.263  1.00  0.00     0.278 C 
ENDBRANCH  22  26
BRANCH  23  28
ATOM     28  O   UNL     1      12.327  16.936  37.844  1.00  0.00    -0.493 OA
ATOM     29  C   UNL     1      11.676  15.670  37.797  1.00  0.00     0.278 C 
ENDBRANCH  23  28
ENDBRANCH   4  18
BRANCH  11  30
ATOM     30  C   UNL     1      11.404  29.031  41.449  1.00  0.00     0.138 C 
BRANCH  30  31
ATOM     31  N   UNL     1      10.875  29.199  42.821  1.00  0.00    -0.293 NA
ATOM     32  C   UNL     1      10.665  30.625  43.168  1.00  0.00     0.113 C 
ATOM     33  C   UNL     1      11.707  28.530  43.843  1.00  0.00     0.113 C 
ATOM     34  C   UNL     1      11.879  31.251  43.885  1.00  0.00     0.175 C 
ATOM     35  C   UNL     1      13.053  29.262  44.064  1.00  0.00     0.175 C 
ATOM     36  O   UNL     1      13.067  30.577  43.535  1.00  0.00    -0.379 OA
ENDBRANCH  30  31
ENDBRANCH  11  30
TORSDOF 6
ENDMDL
