MODEL 1
REMARK VINA RESULT:    -8.968      0.000      0.000
REMARK INTER + INTRA:         -15.329
REMARK INTER:                 -13.949
REMARK INTRA:                  -1.379
REMARK UNBOUND:                -1.379
REMARK SMILES COc1ccc(CN2C3CC2CN(c2ccc(-c4cc(OCC(C)(C)O)cn5ncc(C#N)c45)cn2)C3)cn1
REMARK SMILES IDX 18 1 19 2 20 3 27 4 28 5 29 6 30 7 31 8 34 9 17 10 14 11
REMARK SMILES IDX 15 12 36 13 16 14 35 15 13 16 8 17 11 18 9 19 10 20 12 21
REMARK SMILES IDX 37 22 7 23 6 24 3 25 39 26 4 27 38 28 5 29 2 30 1 31 21 32
REMARK SMILES IDX 22 33 23 34 24 35 25 36 26 37 32 39 33 40
REMARK H PARENT 26 38
REMARK Flexibility Score: inf
ROOT
ATOM      1  C   UNL     1      23.739  23.763  37.905  1.00  0.00     0.014 A 
ATOM      2  C   UNL     1      23.953  23.704  36.515  1.00  0.00     0.059 A 
ATOM      3  C   UNL     1      25.137  23.158  35.983  1.00  0.00     0.138 A 
ATOM      4  C   UNL     1      26.123  22.680  36.874  1.00  0.00     0.159 A 
ATOM      5  N   UNL     1      25.891  22.770  38.208  1.00  0.00    -0.235 N 
ATOM      6  N   UNL     1      26.725  22.395  39.164  1.00  0.00    -0.175 NA
ATOM      7  C   UNL     1      26.126  22.674  40.343  1.00  0.00     0.155 A 
ATOM      8  C   UNL     1      24.881  23.238  40.111  1.00  0.00     0.098 A 
ATOM      9  C   UNL     1      24.765  23.281  38.733  1.00  0.00     0.092 A 
ENDROOT
BRANCH   1  10
ATOM     10  C   UNL     1      22.462  24.275  38.433  1.00  0.00     0.003 A 
ATOM     11  C   UNL     1      20.070  25.280  39.471  1.00  0.00     0.128 A 
ATOM     12  C   UNL     1      20.196  23.901  39.205  1.00  0.00     0.047 A 
ATOM     13  N   UNL     1      21.131  26.098  39.217  1.00  0.00    -0.239 NA
ATOM     14  C   UNL     1      21.396  23.404  38.691  1.00  0.00     0.014 A 
ATOM     15  C   UNL     1      22.305  25.637  38.714  1.00  0.00     0.122 A 
BRANCH  11  16
ATOM     16  N   UNL     1      18.853  25.841  40.011  1.00  0.00    -0.353 N 
ATOM     17  N   UNL     1      16.241  26.492  40.043  1.00  0.00    -0.289 NA
ATOM     18  C   UNL     1      17.146  27.614  40.335  1.00  0.00     0.078 C 
ATOM     19  C   UNL     1      16.733  25.902  41.299  1.00  0.00     0.078 C 
ATOM     20  C   UNL     1      17.258  27.240  41.810  1.00  0.00     0.042 C 
ATOM     21  C   UNL     1      18.490  27.247  39.664  1.00  0.00     0.137 C 
ATOM     22  C   UNL     1      17.961  25.046  40.907  1.00  0.00     0.137 C 
BRANCH  17  23
ATOM     23  C   UNL     1      14.824  26.902  40.137  1.00  0.00     0.122 C 
BRANCH  23  24
ATOM     24  C   UNL     1      13.937  25.707  39.931  1.00  0.00    -0.015 A 
ATOM     25  C   UNL     1      12.356  23.442  39.557  1.00  0.00     0.212 A 
ATOM     26  N   UNL     1      13.427  23.688  38.748  1.00  0.00    -0.222 NA
ATOM     27  C   UNL     1      12.046  24.337  40.583  1.00  0.00     0.069 A 
ATOM     28  C   UNL     1      14.213  24.784  38.910  1.00  0.00     0.120 A 
ATOM     29  C   UNL     1      12.841  25.470  40.774  1.00  0.00     0.012 A 
BRANCH  25  30
ATOM     30  O   UNL     1      11.567  22.302  39.375  1.00  0.00    -0.481 OA
ATOM     31  C   UNL     1      11.981  21.202  38.573  1.00  0.00     0.280 C 
ENDBRANCH  25  30
ENDBRANCH  23  24
ENDBRANCH  17  23
ENDBRANCH  11  16
ENDBRANCH   1  10
BRANCH   3  32
ATOM     32  O   UNL     1      25.271  23.099  34.585  1.00  0.00    -0.489 OA
BRANCH  32  33
ATOM     33  C   UNL     1      26.216  22.306  33.863  1.00  0.00     0.264 C 
BRANCH  33  34
ATOM     34  C   UNL     1      26.427  22.835  32.425  1.00  0.00     0.093 C 
ATOM     35  C   UNL     1      26.375  24.376  32.443  1.00  0.00     0.045 C 
ATOM     36  C   UNL     1      27.795  22.367  31.893  1.00  0.00     0.045 C 
BRANCH  34  37
ATOM     37  O   UNL     1      25.401  22.341  31.598  1.00  0.00    -0.387 OA
ATOM     38  H   UNL     1      24.974  21.574  32.063  1.00  0.00     0.211 HD
ENDBRANCH  34  37
ENDBRANCH  33  34
ENDBRANCH  32  33
ENDBRANCH   3  32
BRANCH   8  39
ATOM     39  C   UNL     1      23.969  23.723  41.113  1.00  0.00     0.103 C 
ATOM     40  N   UNL     1      23.237  24.111  41.919  1.00  0.00    -0.192 NA
ENDBRANCH   8  39
TORSDOF 10
ENDMDL
MODEL 2
REMARK VINA RESULT:    -8.170      5.278     12.265
REMARK INTER + INTRA:         -14.086
REMARK INTER:                 -12.671
REMARK INTRA:                  -1.415
REMARK UNBOUND:                -1.379
REMARK SMILES COc1ccc(CN2C3CC2CN(c2ccc(-c4cc(OCC(C)(C)O)cn5ncc(C#N)c45)cn2)C3)cn1
REMARK SMILES IDX 18 1 19 2 20 3 27 4 28 5 29 6 30 7 31 8 34 9 17 10 14 11
REMARK SMILES IDX 15 12 36 13 16 14 35 15 13 16 8 17 11 18 9 19 10 20 12 21
REMARK SMILES IDX 37 22 7 23 6 24 3 25 39 26 4 27 38 28 5 29 2 30 1 31 21 32
REMARK SMILES IDX 22 33 23 34 24 35 25 36 26 37 32 39 33 40
REMARK H PARENT 26 38
REMARK Flexibility Score: inf
ROOT
ATOM      1  C   UNL     1      10.687  18.601  37.703  1.00  0.00     0.014 A 
ATOM      2  C   UNL     1       9.821  18.547  36.595  1.00  0.00     0.059 A 
ATOM      3  C   UNL     1       9.244  17.331  36.180  1.00  0.00     0.138 A 
ATOM      4  C   UNL     1       9.564  16.152  36.890  1.00  0.00     0.159 A 
ATOM      5  N   UNL     1      10.418  16.240  37.941  1.00  0.00    -0.235 N 
ATOM      6  N   UNL     1      10.835  15.226  38.684  1.00  0.00    -0.175 NA
ATOM      7  C   UNL     1      11.685  15.734  39.603  1.00  0.00     0.155 A 
ATOM      8  C   UNL     1      11.798  17.104  39.427  1.00  0.00     0.098 A 
ATOM      9  C   UNL     1      10.970  17.392  38.356  1.00  0.00     0.092 A 
ENDROOT
BRANCH   1  10
ATOM     10  C   UNL     1      11.220  19.898  38.160  1.00  0.00     0.003 A 
ATOM     11  C   UNL     1      12.177  22.377  39.021  1.00  0.00     0.128 A 
ATOM     12  C   UNL     1      12.908  21.633  38.074  1.00  0.00     0.047 A 
ATOM     13  N   UNL     1      11.005  21.866  39.496  1.00  0.00    -0.239 NA
ATOM     14  C   UNL     1      12.422  20.396  37.643  1.00  0.00     0.014 A 
ATOM     15  C   UNL     1      10.516  20.665  39.094  1.00  0.00     0.122 A 
BRANCH  11  16
ATOM     16  N   UNL     1      12.633  23.664  39.493  1.00  0.00    -0.353 N 
ATOM     17  N   UNL     1      14.129  25.372  40.939  1.00  0.00    -0.289 NA
ATOM     18  C   UNL     1      12.681  25.604  41.042  1.00  0.00     0.078 C 
ATOM     19  C   UNL     1      13.986  25.745  39.522  1.00  0.00     0.078 C 
ATOM     20  C   UNL     1      12.646  26.434  39.762  1.00  0.00     0.042 C 
ATOM     21  C   UNL     1      12.020  24.242  40.725  1.00  0.00     0.137 C 
ATOM     22  C   UNL     1      13.696  24.425  38.769  1.00  0.00     0.137 C 
BRANCH  17  23
ATOM     23  C   UNL     1      14.894  26.378  41.707  1.00  0.00     0.122 C 
BRANCH  23  24
ATOM     24  C   UNL     1      16.300  26.454  41.182  1.00  0.00    -0.015 A 
ATOM     25  C   UNL     1      18.927  26.645  40.272  1.00  0.00     0.212 A 
ATOM     26  N   UNL     1      18.183  27.766  40.497  1.00  0.00    -0.222 NA
ATOM     27  C   UNL     1      18.365  25.386  40.496  1.00  0.00     0.069 A 
ATOM     28  C   UNL     1      16.901  27.700  40.941  1.00  0.00     0.120 A 
ATOM     29  C   UNL     1      17.050  25.291  40.958  1.00  0.00     0.012 A 
BRANCH  25  30
ATOM     30  O   UNL     1      20.248  26.739  39.822  1.00  0.00    -0.481 OA
ATOM     31  C   UNL     1      21.137  25.629  39.814  1.00  0.00     0.280 C 
ENDBRANCH  25  30
ENDBRANCH  23  24
ENDBRANCH  17  23
ENDBRANCH  11  16
ENDBRANCH   1  10
BRANCH   3  32
ATOM     32  O   UNL     1       8.362  17.354  35.086  1.00  0.00    -0.489 OA
BRANCH  32  33
ATOM     33  C   UNL     1       7.888  18.522  34.412  1.00  0.00     0.264 C 
BRANCH  33  34
ATOM     34  C   UNL     1       8.462  18.628  32.979  1.00  0.00     0.093 C 
ATOM     35  C   UNL     1       7.484  17.955  31.995  1.00  0.00     0.045 C 
ATOM     36  C   UNL     1       8.645  20.109  32.600  1.00  0.00     0.045 C 
BRANCH  34  37
ATOM     37  O   UNL     1       9.704  17.968  32.932  1.00  0.00    -0.387 OA
ATOM     38  H   UNL     1       9.582  17.055  33.305  1.00  0.00     0.211 HD
ENDBRANCH  34  37
ENDBRANCH  33  34
ENDBRANCH  32  33
ENDBRANCH   3  32
BRANCH   8  39
ATOM     39  C   UNL     1      12.654  17.988  40.173  1.00  0.00     0.103 C 
ATOM     40  N   UNL     1      13.342  18.697  40.774  1.00  0.00    -0.192 NA
ENDBRANCH   8  39
TORSDOF 10
ENDMDL
MODEL 3
REMARK VINA RESULT:    -8.041      6.883     11.100
REMARK INTER + INTRA:         -13.886
REMARK INTER:                 -12.823
REMARK INTRA:                  -1.063
REMARK UNBOUND:                -1.379
REMARK SMILES COc1ccc(CN2C3CC2CN(c2ccc(-c4cc(OCC(C)(C)O)cn5ncc(C#N)c45)cn2)C3)cn1
REMARK SMILES IDX 18 1 19 2 20 3 27 4 28 5 29 6 30 7 31 8 34 9 17 10 14 11
REMARK SMILES IDX 15 12 36 13 16 14 35 15 13 16 8 17 11 18 9 19 10 20 12 21
REMARK SMILES IDX 37 22 7 23 6 24 3 25 39 26 4 27 38 28 5 29 2 30 1 31 21 32
REMARK SMILES IDX 22 33 23 34 24 35 25 36 26 37 32 39 33 40
REMARK H PARENT 26 38
REMARK Flexibility Score: inf
ROOT
ATOM      1  C   UNL     1      14.042  25.086  40.141  1.00  0.00     0.014 A 
ATOM      2  C   UNL     1      15.417  25.170  40.429  1.00  0.00     0.059 A 
ATOM      3  C   UNL     1      15.961  26.306  41.059  1.00  0.00     0.138 A 
ATOM      4  C   UNL     1      15.102  27.378  41.384  1.00  0.00     0.159 A 
ATOM      5  N   UNL     1      13.785  27.271  41.074  1.00  0.00    -0.235 N 
ATOM      6  N   UNL     1      12.863  28.196  41.287  1.00  0.00    -0.175 NA
ATOM      7  C   UNL     1      11.695  27.707  40.816  1.00  0.00     0.155 A 
ATOM      8  C   UNL     1      11.898  26.438  40.296  1.00  0.00     0.098 A 
ATOM      9  C   UNL     1      13.247  26.192  40.482  1.00  0.00     0.092 A 
ENDROOT
BRANCH   1  10
ATOM     10  C   UNL     1      13.486  23.857  39.547  1.00  0.00     0.003 A 
ATOM     11  C   UNL     1      12.421  21.557  38.371  1.00  0.00     0.128 A 
ATOM     12  C   UNL     1      12.130  21.857  39.717  1.00  0.00     0.047 A 
ATOM     13  N   UNL     1      13.221  22.408  37.666  1.00  0.00    -0.239 NA
ATOM     14  C   UNL     1      12.661  23.012  40.297  1.00  0.00     0.014 A 
ATOM     15  C   UNL     1      13.750  23.533  38.211  1.00  0.00     0.122 A 
BRANCH  11  16
ATOM     16  N   UNL     1      11.890  20.381  37.723  1.00  0.00    -0.353 N 
ATOM     17  N   UNL     1      10.185  18.966  36.193  1.00  0.00    -0.289 NA
ATOM     18  C   UNL     1      10.414  18.394  37.527  1.00  0.00     0.078 C 
ATOM     19  C   UNL     1      11.606  18.680  35.937  1.00  0.00     0.078 C 
ATOM     20  C   UNL     1      11.688  17.680  37.086  1.00  0.00     0.042 C 
ATOM     21  C   UNL     1      10.839  19.583  38.421  1.00  0.00     0.137 C 
ATOM     22  C   UNL     1      12.375  19.949  36.377  1.00  0.00     0.137 C 
BRANCH  17  23
ATOM     23  C   UNL     1       9.289  18.112  35.384  1.00  0.00     0.122 C 
BRANCH  23  24
ATOM     24  C   UNL     1       8.909  18.830  34.120  1.00  0.00    -0.015 A 
ATOM     25  C   UNL     1       8.284  20.181  31.764  1.00  0.00     0.212 A 
ATOM     26  N   UNL     1       8.947  20.812  32.775  1.00  0.00    -0.222 NA
ATOM     27  C   UNL     1       7.910  18.843  31.911  1.00  0.00     0.069 A 
ATOM     28  C   UNL     1       9.264  20.176  33.933  1.00  0.00     0.120 A 
ATOM     29  C   UNL     1       8.229  18.165  33.090  1.00  0.00     0.012 A 
BRANCH  25  30
ATOM     30  O   UNL     1       7.976  20.856  30.579  1.00  0.00    -0.481 OA
ATOM     31  C   UNL     1       8.548  20.505  29.325  1.00  0.00     0.280 C 
ENDBRANCH  25  30
ENDBRANCH  23  24
ENDBRANCH  17  23
ENDBRANCH  11  16
ENDBRANCH   1  10
BRANCH   3  32
ATOM     32  O   UNL     1      17.337  26.309  41.348  1.00  0.00    -0.489 OA
BRANCH  32  33
ATOM     33  C   UNL     1      18.393  26.541  40.413  1.00  0.00     0.264 C 
BRANCH  33  34
ATOM     34  C   UNL     1      18.875  28.010  40.446  1.00  0.00     0.093 C 
ATOM     35  C   UNL     1      18.937  28.486  41.912  1.00  0.00     0.045 C 
ATOM     36  C   UNL     1      20.272  28.114  39.805  1.00  0.00     0.045 C 
BRANCH  34  37
ATOM     37  O   UNL     1      17.963  28.809  39.732  1.00  0.00    -0.387 OA
ATOM     38  H   UNL     1      17.970  28.512  38.784  1.00  0.00     0.211 HD
ENDBRANCH  34  37
ENDBRANCH  33  34
ENDBRANCH  32  33
ENDBRANCH   3  32
BRANCH   8  39
ATOM     39  C   UNL     1      10.907  25.617  39.651  1.00  0.00     0.103 C 
ATOM     40  N   UNL     1      10.111  24.959  39.132  1.00  0.00    -0.192 NA
ENDBRANCH   8  39
TORSDOF 10
ENDMDL
MODEL 4
REMARK VINA RESULT:    -7.883      9.402     13.333
REMARK INTER + INTRA:         -13.641
REMARK INTER:                 -12.206
REMARK INTRA:                  -1.435
REMARK UNBOUND:                -1.379
REMARK SMILES COc1ccc(CN2C3CC2CN(c2ccc(-c4cc(OCC(C)(C)O)cn5ncc(C#N)c45)cn2)C3)cn1
REMARK SMILES IDX 18 1 19 2 20 3 27 4 28 5 29 6 30 7 31 8 34 9 17 10 14 11
REMARK SMILES IDX 15 12 36 13 16 14 35 15 13 16 8 17 11 18 9 19 10 20 12 21
REMARK SMILES IDX 37 22 7 23 6 24 3 25 39 26 4 27 38 28 5 29 2 30 1 31 21 32
REMARK SMILES IDX 22 33 23 34 24 35 25 36 26 37 32 39 33 40
REMARK H PARENT 26 38
REMARK Flexibility Score: inf
ROOT
ATOM      1  C   UNL     1      11.748  26.496  42.015  1.00  0.00     0.014 A 
ATOM      2  C   UNL     1      12.045  26.393  43.387  1.00  0.00     0.059 A 
ATOM      3  C   UNL     1      11.671  27.406  44.291  1.00  0.00     0.138 A 
ATOM      4  C   UNL     1      11.002  28.545  43.794  1.00  0.00     0.159 A 
ATOM      5  N   UNL     1      10.749  28.620  42.462  1.00  0.00    -0.235 N 
ATOM      6  N   UNL     1      10.160  29.630  41.843  1.00  0.00    -0.175 NA
ATOM      7  C   UNL     1      10.122  29.320  40.528  1.00  0.00     0.155 A 
ATOM      8  C   UNL     1      10.704  28.079  40.326  1.00  0.00     0.098 A 
ATOM      9  C   UNL     1      11.091  27.660  41.587  1.00  0.00     0.092 A 
ENDROOT
BRANCH   1  10
ATOM     10  C   UNL     1      12.087  25.390  41.102  1.00  0.00     0.003 A 
ATOM     11  C   UNL     1      12.708  23.255  39.409  1.00  0.00     0.128 A 
ATOM     12  C   UNL     1      13.640  24.296  39.598  1.00  0.00     0.047 A 
ATOM     13  N   UNL     1      11.514  23.314  40.067  1.00  0.00    -0.239 NA
ATOM     14  C   UNL     1      13.326  25.357  40.450  1.00  0.00     0.014 A 
ATOM     15  C   UNL     1      11.187  24.338  40.896  1.00  0.00     0.122 A 
BRANCH  11  16
ATOM     16  N   UNL     1      12.988  22.132  38.545  1.00  0.00    -0.353 N 
ATOM     17  N   UNL     1      12.572  20.428  36.502  1.00  0.00    -0.289 NA
ATOM     18  C   UNL     1      12.807  19.772  37.797  1.00  0.00     0.078 C 
ATOM     19  C   UNL     1      13.957  20.915  36.612  1.00  0.00     0.078 C 
ATOM     20  C   UNL     1      14.324  19.861  37.653  1.00  0.00     0.042 C 
ATOM     21  C   UNL     1      12.386  20.804  38.868  1.00  0.00     0.137 C 
ATOM     22  C   UNL     1      13.868  22.273  37.347  1.00  0.00     0.137 C 
BRANCH  17  23
ATOM     23  C   UNL     1      12.411  19.440  35.416  1.00  0.00     0.122 C 
BRANCH  23  24
ATOM     24  C   UNL     1      11.298  19.868  34.501  1.00  0.00    -0.015 A 
ATOM     25  C   UNL     1       9.284  20.721  32.775  1.00  0.00     0.212 A 
ATOM     26  N   UNL     1       9.872  21.591  33.645  1.00  0.00    -0.222 NA
ATOM     27  C   UNL     1       9.692  19.385  32.750  1.00  0.00     0.069 A 
ATOM     28  C   UNL     1      10.857  21.201  34.496  1.00  0.00     0.120 A 
ATOM     29  C   UNL     1      10.706  18.960  33.612  1.00  0.00     0.012 A 
BRANCH  25  30
ATOM     30  O   UNL     1       8.277  21.149  31.903  1.00  0.00    -0.481 OA
ATOM     31  C   UNL     1       7.743  20.317  30.881  1.00  0.00     0.280 C 
ENDBRANCH  25  30
ENDBRANCH  23  24
ENDBRANCH  17  23
ENDBRANCH  11  16
ENDBRANCH   1  10
BRANCH   3  32
ATOM     32  O   UNL     1      11.969  27.223  45.653  1.00  0.00    -0.489 OA
BRANCH  32  33
ATOM     33  C   UNL     1      11.303  27.849  46.751  1.00  0.00     0.264 C 
BRANCH  33  34
ATOM     34  C   UNL     1      12.277  28.699  47.602  1.00  0.00     0.093 C 
ATOM     35  C   UNL     1      12.672  29.958  46.805  1.00  0.00     0.045 C 
ATOM     36  C   UNL     1      11.594  29.110  48.920  1.00  0.00     0.045 C 
BRANCH  34  37
ATOM     37  O   UNL     1      13.427  27.938  47.879  1.00  0.00    -0.387 OA
ATOM     38  H   UNL     1      13.599  27.985  48.856  1.00  0.00     0.211 HD
ENDBRANCH  34  37
ENDBRANCH  33  34
ENDBRANCH  32  33
ENDBRANCH   3  32
BRANCH   8  39
ATOM     39  C   UNL     1      10.904  27.433  39.055  1.00  0.00     0.103 C 
ATOM     40  N   UNL     1      11.064  26.915  38.034  1.00  0.00    -0.192 NA
ENDBRANCH   8  39
TORSDOF 10
ENDMDL
MODEL 5
REMARK VINA RESULT:    -7.876      5.509     11.999
REMARK INTER + INTRA:         -13.629
REMARK INTER:                 -12.060
REMARK INTRA:                  -1.569
REMARK UNBOUND:                -1.379
REMARK SMILES COc1ccc(CN2C3CC2CN(c2ccc(-c4cc(OCC(C)(C)O)cn5ncc(C#N)c45)cn2)C3)cn1
REMARK SMILES IDX 18 1 19 2 20 3 27 4 28 5 29 6 30 7 31 8 34 9 17 10 14 11
REMARK SMILES IDX 15 12 36 13 16 14 35 15 13 16 8 17 11 18 9 19 10 20 12 21
REMARK SMILES IDX 37 22 7 23 6 24 3 25 39 26 4 27 38 28 5 29 2 30 1 31 21 32
REMARK SMILES IDX 22 33 23 34 24 35 25 36 26 37 32 39 33 40
REMARK H PARENT 26 38
REMARK Flexibility Score: inf
ROOT
ATOM      1  C   UNL     1      10.444  19.694  37.888  1.00  0.00     0.014 A 
ATOM      2  C   UNL     1       9.988  19.633  36.558  1.00  0.00     0.059 A 
ATOM      3  C   UNL     1       9.606  18.409  35.975  1.00  0.00     0.138 A 
ATOM      4  C   UNL     1       9.702  17.231  36.748  1.00  0.00     0.159 A 
ATOM      5  N   UNL     1      10.164  17.326  38.021  1.00  0.00    -0.235 N 
ATOM      6  N   UNL     1      10.338  16.314  38.856  1.00  0.00    -0.175 NA
ATOM      7  C   UNL     1      10.831  16.830  40.004  1.00  0.00     0.155 A 
ATOM      8  C   UNL     1      10.965  18.204  39.877  1.00  0.00     0.098 A 
ATOM      9  C   UNL     1      10.525  18.484  38.595  1.00  0.00     0.092 A 
ENDROOT
BRANCH   1  10
ATOM     10  C   UNL     1      10.771  20.997  38.496  1.00  0.00     0.003 A 
ATOM     11  C   UNL     1      11.443  23.444  39.665  1.00  0.00     0.128 A 
ATOM     12  C   UNL     1      10.149  22.914  39.840  1.00  0.00     0.047 A 
ATOM     13  N   UNL     1      12.348  22.740  38.925  1.00  0.00    -0.239 NA
ATOM     14  C   UNL     1       9.821  21.688  39.257  1.00  0.00     0.014 A 
ATOM     15  C   UNL     1      12.049  21.548  38.347  1.00  0.00     0.122 A 
BRANCH  11  16
ATOM     16  N   UNL     1      11.834  24.704  40.253  1.00  0.00    -0.353 N 
ATOM     17  N   UNL     1      13.539  26.556  41.208  1.00  0.00    -0.289 NA
ATOM     18  C   UNL     1      12.438  26.222  42.122  1.00  0.00     0.078 C 
ATOM     19  C   UNL     1      12.500  27.094  40.315  1.00  0.00     0.078 C 
ATOM     20  C   UNL     1      11.477  27.194  41.443  1.00  0.00     0.042 C 
ATOM     21  C   UNL     1      11.996  24.792  41.734  1.00  0.00     0.137 C 
ATOM     22  C   UNL     1      12.072  25.915  39.410  1.00  0.00     0.137 C 
BRANCH  17  23
ATOM     23  C   UNL     1      14.402  27.619  41.765  1.00  0.00     0.122 C 
BRANCH  23  24
ATOM     24  C   UNL     1      15.836  27.350  41.404  1.00  0.00    -0.015 A 
ATOM     25  C   UNL     1      18.470  26.830  40.658  1.00  0.00     0.212 A 
ATOM     26  N   UNL     1      17.504  25.878  40.516  1.00  0.00    -0.222 NA
ATOM     27  C   UNL     1      18.137  28.080  41.186  1.00  0.00     0.069 A 
ATOM     28  C   UNL     1      16.212  26.107  40.871  1.00  0.00     0.120 A 
ATOM     29  C   UNL     1      16.815  28.342  41.555  1.00  0.00     0.012 A 
BRANCH  25  30
ATOM     30  O   UNL     1      19.791  26.573  40.277  1.00  0.00    -0.481 OA
ATOM     31  C   UNL     1      20.199  25.334  39.710  1.00  0.00     0.280 C 
ENDBRANCH  25  30
ENDBRANCH  23  24
ENDBRANCH  17  23
ENDBRANCH  11  16
ENDBRANCH   1  10
BRANCH   3  32
ATOM     32  O   UNL     1       9.128  18.424  34.654  1.00  0.00    -0.489 OA
BRANCH  32  33
ATOM     33  C   UNL     1       8.553  19.546  33.980  1.00  0.00     0.264 C 
BRANCH  33  34
ATOM     34  C   UNL     1       9.478  20.076  32.859  1.00  0.00     0.093 C 
ATOM     35  C   UNL     1       8.643  20.298  31.581  1.00  0.00     0.045 C 
ATOM     36  C   UNL     1      10.120  21.405  33.298  1.00  0.00     0.045 C 
BRANCH  34  37
ATOM     37  O   UNL     1      10.482  19.124  32.603  1.00  0.00    -0.387 OA
ATOM     38  H   UNL     1      11.315  19.427  33.053  1.00  0.00     0.211 HD
ENDBRANCH  34  37
ENDBRANCH  33  34
ENDBRANCH  32  33
ENDBRANCH   3  32
BRANCH   8  39
ATOM     39  C   UNL     1      11.512  19.097  40.864  1.00  0.00     0.103 C 
ATOM     40  N   UNL     1      11.952  19.816  41.656  1.00  0.00    -0.192 NA
ENDBRANCH   8  39
TORSDOF 10
ENDMDL
MODEL 6
REMARK VINA RESULT:    -7.761      8.774     12.342
REMARK INTER + INTRA:         -13.450
REMARK INTER:                 -12.181
REMARK INTRA:                  -1.269
REMARK UNBOUND:                -1.379
REMARK SMILES COc1ccc(CN2C3CC2CN(c2ccc(-c4cc(OCC(C)(C)O)cn5ncc(C#N)c45)cn2)C3)cn1
REMARK SMILES IDX 18 1 19 2 20 3 27 4 28 5 29 6 30 7 31 8 34 9 17 10 14 11
REMARK SMILES IDX 15 12 36 13 16 14 35 15 13 16 8 17 11 18 9 19 10 20 12 21
REMARK SMILES IDX 37 22 7 23 6 24 3 25 39 26 4 27 38 28 5 29 2 30 1 31 21 32
REMARK SMILES IDX 22 33 23 34 24 35 25 36 26 37 32 39 33 40
REMARK H PARENT 26 38
REMARK Flexibility Score: inf
ROOT
ATOM      1  C   UNL     1      12.185  27.310  40.707  1.00  0.00     0.014 A 
ATOM      2  C   UNL     1      10.925  27.917  40.548  1.00  0.00     0.059 A 
ATOM      3  C   UNL     1      10.703  29.251  40.942  1.00  0.00     0.138 A 
ATOM      4  C   UNL     1      11.770  29.972  41.521  1.00  0.00     0.159 A 
ATOM      5  N   UNL     1      12.966  29.349  41.676  1.00  0.00    -0.235 N 
ATOM      6  N   UNL     1      14.048  29.879  42.225  1.00  0.00    -0.175 NA
ATOM      7  C   UNL     1      15.007  28.927  42.208  1.00  0.00     0.155 A 
ATOM      8  C   UNL     1      14.505  27.772  41.629  1.00  0.00     0.098 A 
ATOM      9  C   UNL     1      13.198  28.081  41.298  1.00  0.00     0.092 A 
ENDROOT
BRANCH   1  10
ATOM     10  C   UNL     1      12.409  25.937  40.221  1.00  0.00     0.003 A 
ATOM     11  C   UNL     1      12.825  23.352  39.245  1.00  0.00     0.128 A 
ATOM     12  C   UNL     1      12.050  23.548  40.405  1.00  0.00     0.047 A 
ATOM     13  N   UNL     1      13.356  24.441  38.616  1.00  0.00    -0.239 NA
ATOM     14  C   UNL     1      11.841  24.843  40.885  1.00  0.00     0.014 A 
ATOM     15  C   UNL     1      13.168  25.707  39.068  1.00  0.00     0.122 A 
BRANCH  11  16
ATOM     16  N   UNL     1      13.063  22.034  38.704  1.00  0.00    -0.353 N 
ATOM     17  N   UNL     1      12.487  19.791  37.331  1.00  0.00    -0.289 NA
ATOM     18  C   UNL     1      12.967  19.554  38.701  1.00  0.00     0.078 C 
ATOM     19  C   UNL     1      13.828  20.335  37.064  1.00  0.00     0.078 C 
ATOM     20  C   UNL     1      14.432  19.648  38.285  1.00  0.00     0.042 C 
ATOM     21  C   UNL     1      12.628  20.841  39.488  1.00  0.00     0.137 C 
ATOM     22  C   UNL     1      13.739  21.846  37.384  1.00  0.00     0.137 C 
BRANCH  17  23
ATOM     23  C   UNL     1      12.246  18.521  36.615  1.00  0.00     0.122 C 
BRANCH  23  24
ATOM     24  C   UNL     1      11.216  18.732  35.541  1.00  0.00    -0.015 A 
ATOM     25  C   UNL     1       9.259  19.163  33.605  1.00  0.00     0.212 A 
ATOM     26  N   UNL     1       8.952  18.548  34.783  1.00  0.00    -0.222 NA
ATOM     27  C   UNL     1      10.570  19.579  33.363  1.00  0.00     0.069 A 
ATOM     28  C   UNL     1       9.887  18.327  35.743  1.00  0.00     0.120 A 
ATOM     29  C   UNL     1      11.550  19.367  34.337  1.00  0.00     0.012 A 
BRANCH  25  30
ATOM     30  O   UNL     1       8.276  19.387  32.635  1.00  0.00    -0.481 OA
ATOM     31  C   UNL     1       8.494  20.213  31.498  1.00  0.00     0.280 C 
ENDBRANCH  25  30
ENDBRANCH  23  24
ENDBRANCH  17  23
ENDBRANCH  11  16
ENDBRANCH   1  10
BRANCH   3  32
ATOM     32  O   UNL     1       9.430  29.805  40.723  1.00  0.00    -0.489 OA
BRANCH  32  33
ATOM     33  C   UNL     1       8.420  29.277  39.861  1.00  0.00     0.264 C 
BRANCH  33  34
ATOM     34  C   UNL     1       8.445  29.952  38.469  1.00  0.00     0.093 C 
ATOM     35  C   UNL     1       7.031  29.894  37.857  1.00  0.00     0.045 C 
ATOM     36  C   UNL     1       8.891  31.420  38.611  1.00  0.00     0.045 C 
BRANCH  34  37
ATOM     37  O   UNL     1       9.346  29.260  37.639  1.00  0.00    -0.387 OA
ATOM     38  H   UNL     1      10.204  29.759  37.630  1.00  0.00     0.211 HD
ENDBRANCH  34  37
ENDBRANCH  33  34
ENDBRANCH  32  33
ENDBRANCH   3  32
BRANCH   8  39
ATOM     39  C   UNL     1      15.206  26.523  41.484  1.00  0.00     0.103 C 
ATOM     40  N   UNL     1      15.769  25.520  41.369  1.00  0.00    -0.192 NA
ENDBRANCH   8  39
TORSDOF 10
ENDMDL
MODEL 7
REMARK VINA RESULT:    -7.723      8.733     12.305
REMARK INTER + INTRA:         -13.392
REMARK INTER:                 -12.261
REMARK INTRA:                  -1.131
REMARK UNBOUND:                -1.379
REMARK SMILES COc1ccc(CN2C3CC2CN(c2ccc(-c4cc(OCC(C)(C)O)cn5ncc(C#N)c45)cn2)C3)cn1
REMARK SMILES IDX 18 1 19 2 20 3 27 4 28 5 29 6 30 7 31 8 34 9 17 10 14 11
REMARK SMILES IDX 15 12 36 13 16 14 35 15 13 16 8 17 11 18 9 19 10 20 12 21
REMARK SMILES IDX 37 22 7 23 6 24 3 25 39 26 4 27 38 28 5 29 2 30 1 31 21 32
REMARK SMILES IDX 22 33 23 34 24 35 25 36 26 37 32 39 33 40
REMARK H PARENT 26 38
REMARK Flexibility Score: inf
ROOT
ATOM      1  C   UNL     1      12.233  27.104  40.619  1.00  0.00     0.014 A 
ATOM      2  C   UNL     1      10.963  27.686  40.444  1.00  0.00     0.059 A 
ATOM      3  C   UNL     1      10.714  29.019  40.823  1.00  0.00     0.138 A 
ATOM      4  C   UNL     1      11.763  29.766  41.402  1.00  0.00     0.159 A 
ATOM      5  N   UNL     1      12.969  29.167  41.573  1.00  0.00    -0.235 N 
ATOM      6  N   UNL     1      14.036  29.723  42.125  1.00  0.00    -0.175 NA
ATOM      7  C   UNL     1      15.013  28.789  42.125  1.00  0.00     0.155 A 
ATOM      8  C   UNL     1      14.537  27.618  41.554  1.00  0.00     0.098 A 
ATOM      9  C   UNL     1      13.227  27.900  41.210  1.00  0.00     0.092 A 
ENDROOT
BRANCH   1  10
ATOM     10  C   UNL     1      12.486  25.730  40.149  1.00  0.00     0.003 A 
ATOM     11  C   UNL     1      12.960  23.144  39.203  1.00  0.00     0.128 A 
ATOM     12  C   UNL     1      12.133  23.340  40.327  1.00  0.00     0.047 A 
ATOM     13  N   UNL     1      13.512  24.233  38.595  1.00  0.00    -0.239 NA
ATOM     14  C   UNL     1      11.895  24.636  40.792  1.00  0.00     0.014 A 
ATOM     15  C   UNL     1      13.298  25.501  39.032  1.00  0.00     0.122 A 
BRANCH  11  16
ATOM     16  N   UNL     1      13.230  21.826  38.679  1.00  0.00    -0.353 N 
ATOM     17  N   UNL     1      12.675  19.513  37.417  1.00  0.00    -0.289 NA
ATOM     18  C   UNL     1      13.276  19.344  38.748  1.00  0.00     0.078 C 
ATOM     19  C   UNL     1      13.957  20.123  37.026  1.00  0.00     0.078 C 
ATOM     20  C   UNL     1      14.695  19.507  38.212  1.00  0.00     0.042 C 
ATOM     21  C   UNL     1      12.928  20.635  39.526  1.00  0.00     0.137 C 
ATOM     22  C   UNL     1      13.807  21.635  37.314  1.00  0.00     0.137 C 
BRANCH  17  23
ATOM     23  C   UNL     1      12.451  18.210  36.755  1.00  0.00     0.122 C 
BRANCH  23  24
ATOM     24  C   UNL     1      11.572  17.349  37.617  1.00  0.00    -0.015 A 
ATOM     25  C   UNL     1       9.879  15.761  39.160  1.00  0.00     0.212 A 
ATOM     26  N   UNL     1       9.522  17.031  38.814  1.00  0.00    -0.222 NA
ATOM     27  C   UNL     1      11.110  15.250  38.740  1.00  0.00     0.069 A 
ATOM     28  C   UNL     1      10.328  17.825  38.062  1.00  0.00     0.120 A 
ATOM     29  C   UNL     1      11.955  16.045  37.961  1.00  0.00     0.012 A 
BRANCH  25  30
ATOM     30  O   UNL     1       9.028  14.961  39.928  1.00  0.00    -0.481 OA
ATOM     31  C   UNL     1       9.492  13.842  40.673  1.00  0.00     0.280 C 
ENDBRANCH  25  30
ENDBRANCH  23  24
ENDBRANCH  17  23
ENDBRANCH  11  16
ENDBRANCH   1  10
BRANCH   3  32
ATOM     32  O   UNL     1       9.433  29.547  40.588  1.00  0.00    -0.489 OA
BRANCH  32  33
ATOM     33  C   UNL     1       8.447  29.003  39.709  1.00  0.00     0.264 C 
BRANCH  33  34
ATOM     34  C   UNL     1       8.435  29.727  38.342  1.00  0.00     0.093 C 
ATOM     35  C   UNL     1       7.022  29.631  37.734  1.00  0.00     0.045 C 
ATOM     36  C   UNL     1       8.820  31.207  38.534  1.00  0.00     0.045 C 
BRANCH  34  37
ATOM     37  O   UNL     1       9.359  29.103  37.484  1.00  0.00    -0.387 OA
ATOM     38  H   UNL     1       8.971  29.091  36.570  1.00  0.00     0.211 HD
ENDBRANCH  34  37
ENDBRANCH  33  34
ENDBRANCH  32  33
ENDBRANCH   3  32
BRANCH   8  39
ATOM     39  C   UNL     1      15.262  26.381  41.428  1.00  0.00     0.103 C 
ATOM     40  N   UNL     1      15.845  25.388  41.326  1.00  0.00    -0.192 NA
ENDBRANCH   8  39
TORSDOF 10
ENDMDL
MODEL 8
REMARK VINA RESULT:    -7.532      5.413     12.950
REMARK INTER + INTRA:         -13.095
REMARK INTER:                 -11.854
REMARK INTRA:                  -1.241
REMARK UNBOUND:                -1.379
REMARK SMILES COc1ccc(CN2C3CC2CN(c2ccc(-c4cc(OCC(C)(C)O)cn5ncc(C#N)c45)cn2)C3)cn1
REMARK SMILES IDX 18 1 19 2 20 3 27 4 28 5 29 6 30 7 31 8 34 9 17 10 14 11
REMARK SMILES IDX 15 12 36 13 16 14 35 15 13 16 8 17 11 18 9 19 10 20 12 21
REMARK SMILES IDX 37 22 7 23 6 24 3 25 39 26 4 27 38 28 5 29 2 30 1 31 21 32
REMARK SMILES IDX 22 33 23 34 24 35 25 36 26 37 32 39 33 40
REMARK H PARENT 26 38
REMARK Flexibility Score: inf
ROOT
ATOM      1  C   UNL     1      10.983  18.270  39.101  1.00  0.00     0.014 A 
ATOM      2  C   UNL     1      11.277  17.270  40.048  1.00  0.00     0.059 A 
ATOM      3  C   UNL     1      10.912  15.928  39.827  1.00  0.00     0.138 A 
ATOM      4  C   UNL     1      10.224  15.600  38.638  1.00  0.00     0.159 A 
ATOM      5  N   UNL     1       9.941  16.592  37.757  1.00  0.00    -0.235 N 
ATOM      6  N   UNL     1       9.281  16.450  36.619  1.00  0.00    -0.175 NA
ATOM      7  C   UNL     1       9.194  17.675  36.056  1.00  0.00     0.155 A 
ATOM      8  C   UNL     1       9.820  18.606  36.869  1.00  0.00     0.098 A 
ATOM      9  C   UNL     1      10.289  17.875  37.947  1.00  0.00     0.092 A 
ENDROOT
BRANCH   1  10
ATOM     10  C   UNL     1      11.440  19.653  39.324  1.00  0.00     0.003 A 
ATOM     11  C   UNL     1      12.251  22.295  39.734  1.00  0.00     0.128 A 
ATOM     12  C   UNL     1      13.094  21.401  39.045  1.00  0.00     0.047 A 
ATOM     13  N   UNL     1      11.044  21.847  40.185  1.00  0.00    -0.239 NA
ATOM     14  C   UNL     1      12.680  20.082  38.838  1.00  0.00     0.014 A 
ATOM     15  C   UNL     1      10.624  20.569  39.999  1.00  0.00     0.122 A 
BRANCH  11  16
ATOM     16  N   UNL     1      12.629  23.670  39.965  1.00  0.00    -0.353 N 
ATOM     17  N   UNL     1      14.026  25.691  41.067  1.00  0.00    -0.289 NA
ATOM     18  C   UNL     1      12.566  25.850  41.152  1.00  0.00     0.078 C 
ATOM     19  C   UNL     1      13.851  25.801  39.609  1.00  0.00     0.078 C 
ATOM     20  C   UNL     1      12.472  26.439  39.747  1.00  0.00     0.042 C 
ATOM     21  C   UNL     1      11.989  24.417  41.089  1.00  0.00     0.137 C 
ATOM     22  C   UNL     1      13.638  24.355  39.102  1.00  0.00     0.137 C 
BRANCH  17  23
ATOM     23  C   UNL     1      14.731  26.860  41.634  1.00  0.00     0.122 C 
BRANCH  23  24
ATOM     24  C   UNL     1      16.173  26.835  41.212  1.00  0.00    -0.015 A 
ATOM     25  C   UNL     1      18.868  26.826  40.502  1.00  0.00     0.212 A 
ATOM     26  N   UNL     1      18.236  27.990  40.830  1.00  0.00    -0.222 NA
ATOM     27  C   UNL     1      18.155  25.625  40.518  1.00  0.00     0.069 A 
ATOM     28  C   UNL     1      16.924  28.021  41.181  1.00  0.00     0.120 A 
ATOM     29  C   UNL     1      16.806  25.629  40.880  1.00  0.00     0.012 A 
BRANCH  25  30
ATOM     30  O   UNL     1      20.222  26.819  40.152  1.00  0.00    -0.481 OA
ATOM     31  C   UNL     1      20.956  25.618  39.953  1.00  0.00     0.280 C 
ENDBRANCH  25  30
ENDBRANCH  23  24
ENDBRANCH  17  23
ENDBRANCH  11  16
ENDBRANCH   1  10
BRANCH   3  32
ATOM     32  O   UNL     1      11.266  14.975  40.798  1.00  0.00    -0.489 OA
BRANCH  32  33
ATOM     33  C   UNL     1      10.423  14.484  41.842  1.00  0.00     0.264 C 
BRANCH  33  34
ATOM     34  C   UNL     1      11.183  14.364  43.184  1.00  0.00     0.093 C 
ATOM     35  C   UNL     1      11.577  15.775  43.666  1.00  0.00     0.045 C 
ATOM     36  C   UNL     1      10.283  13.687  44.234  1.00  0.00     0.045 C 
BRANCH  34  37
ATOM     37  O   UNL     1      12.345  13.595  42.986  1.00  0.00    -0.387 OA
ATOM     38  H   UNL     1      12.281  13.164  42.093  1.00  0.00     0.211 HD
ENDBRANCH  34  37
ENDBRANCH  33  34
ENDBRANCH  32  33
ENDBRANCH   3  32
BRANCH   8  39
ATOM     39  C   UNL     1       9.887  20.025  36.639  1.00  0.00     0.103 C 
ATOM     40  N   UNL     1       9.939  21.166  36.454  1.00  0.00    -0.192 NA
ENDBRANCH   8  39
TORSDOF 10
ENDMDL
MODEL 9
REMARK VINA RESULT:    -7.170      7.071     11.200
REMARK INTER + INTRA:         -12.532
REMARK INTER:                 -11.582
REMARK INTRA:                  -0.950
REMARK UNBOUND:                -1.379
REMARK SMILES COc1ccc(CN2C3CC2CN(c2ccc(-c4cc(OCC(C)(C)O)cn5ncc(C#N)c45)cn2)C3)cn1
REMARK SMILES IDX 18 1 19 2 20 3 27 4 28 5 29 6 30 7 31 8 34 9 17 10 14 11
REMARK SMILES IDX 15 12 36 13 16 14 35 15 13 16 8 17 11 18 9 19 10 20 12 21
REMARK SMILES IDX 37 22 7 23 6 24 3 25 39 26 4 27 38 28 5 29 2 30 1 31 21 32
REMARK SMILES IDX 22 33 23 34 24 35 25 36 26 37 32 39 33 40
REMARK H PARENT 26 38
REMARK Flexibility Score: inf
ROOT
ATOM      1  C   UNL     1      13.799  25.547  40.305  1.00  0.00     0.014 A 
ATOM      2  C   UNL     1      15.135  25.696  40.722  1.00  0.00     0.059 A 
ATOM      3  C   UNL     1      15.564  26.859  41.390  1.00  0.00     0.138 A 
ATOM      4  C   UNL     1      14.628  27.890  41.624  1.00  0.00     0.159 A 
ATOM      5  N   UNL     1      13.353  27.720  41.192  1.00  0.00    -0.235 N 
ATOM      6  N   UNL     1      12.373  28.601  41.310  1.00  0.00    -0.175 NA
ATOM      7  C   UNL     1      11.279  28.055  40.734  1.00  0.00     0.155 A 
ATOM      8  C   UNL     1      11.589  26.796  40.246  1.00  0.00     0.098 A 
ATOM      9  C   UNL     1      12.924  26.614  40.560  1.00  0.00     0.092 A 
ENDROOT
BRANCH   1  10
ATOM     10  C   UNL     1      13.360  24.290  39.671  1.00  0.00     0.003 A 
ATOM     11  C   UNL     1      12.531  21.883  38.521  1.00  0.00     0.128 A 
ATOM     12  C   UNL     1      13.478  22.689  37.857  1.00  0.00     0.047 A 
ATOM     13  N   UNL     1      12.040  22.300  39.723  1.00  0.00    -0.239 NA
ATOM     14  C   UNL     1      13.893  23.889  38.440  1.00  0.00     0.014 A 
ATOM     15  C   UNL     1      12.426  23.464  40.305  1.00  0.00     0.122 A 
BRANCH  11  16
ATOM     16  N   UNL     1      12.077  20.630  37.964  1.00  0.00    -0.353 N 
ATOM     17  N   UNL     1      10.336  18.933  36.806  1.00  0.00    -0.289 NA
ATOM     18  C   UNL     1      10.961  18.413  38.030  1.00  0.00     0.078 C 
ATOM     19  C   UNL     1      11.688  18.903  36.224  1.00  0.00     0.078 C 
ATOM     20  C   UNL     1      12.204  17.935  37.285  1.00  0.00     0.042 C 
ATOM     21  C   UNL     1      11.368  19.659  38.850  1.00  0.00     0.137 C 
ATOM     22  C   UNL     1      12.307  20.288  36.528  1.00  0.00     0.137 C 
BRANCH  17  23
ATOM     23  C   UNL     1       9.440  17.933  36.189  1.00  0.00     0.122 C 
BRANCH  23  24
ATOM     24  C   UNL     1       8.792  18.519  34.966  1.00  0.00    -0.015 A 
ATOM     25  C   UNL     1       7.652  19.658  32.692  1.00  0.00     0.212 A 
ATOM     26  N   UNL     1       7.982  20.428  33.768  1.00  0.00    -0.222 NA
ATOM     27  C   UNL     1       7.885  18.281  32.730  1.00  0.00     0.069 A 
ATOM     28  C   UNL     1       8.539  19.898  34.889  1.00  0.00     0.120 A 
ATOM     29  C   UNL     1       8.461  17.711  33.868  1.00  0.00     0.012 A 
BRANCH  25  30
ATOM     30  O   UNL     1       7.087  20.229  31.548  1.00  0.00    -0.481 OA
ATOM     31  C   UNL     1       7.814  20.403  30.338  1.00  0.00     0.280 C 
ENDBRANCH  25  30
ENDBRANCH  23  24
ENDBRANCH  17  23
ENDBRANCH  11  16
ENDBRANCH   1  10
BRANCH   3  32
ATOM     32  O   UNL     1      16.904  26.927  41.809  1.00  0.00    -0.489 OA
BRANCH  32  33
ATOM     33  C   UNL     1      17.749  28.078  41.739  1.00  0.00     0.264 C 
BRANCH  33  34
ATOM     34  C   UNL     1      18.753  27.981  40.566  1.00  0.00     0.093 C 
ATOM     35  C   UNL     1      19.219  26.518  40.423  1.00  0.00     0.045 C 
ATOM     36  C   UNL     1      18.075  28.441  39.261  1.00  0.00     0.045 C 
BRANCH  34  37
ATOM     37  O   UNL     1      19.862  28.803  40.841  1.00  0.00    -0.387 OA
ATOM     38  H   UNL     1      20.276  28.488  41.688  1.00  0.00     0.211 HD
ENDBRANCH  34  37
ENDBRANCH  33  34
ENDBRANCH  32  33
ENDBRANCH   3  32
BRANCH   8  39
ATOM     39  C   UNL     1      10.703  25.927  39.516  1.00  0.00     0.103 C 
ATOM     40  N   UNL     1       9.993  25.229  38.930  1.00  0.00    -0.192 NA
ENDBRANCH   8  39
TORSDOF 10
ENDMDL
MODEL 10
REMARK VINA RESULT:    -7.085     10.014     13.566
REMARK INTER + INTRA:         -12.399
REMARK INTER:                 -10.910
REMARK INTRA:                  -1.489
REMARK UNBOUND:                -1.379
REMARK SMILES COc1ccc(CN2C3CC2CN(c2ccc(-c4cc(OCC(C)(C)O)cn5ncc(C#N)c45)cn2)C3)cn1
REMARK SMILES IDX 18 1 19 2 20 3 27 4 28 5 29 6 30 7 31 8 34 9 17 10 14 11
REMARK SMILES IDX 15 12 36 13 16 14 35 15 13 16 8 17 11 18 9 19 10 20 12 21
REMARK SMILES IDX 37 22 7 23 6 24 3 25 39 26 4 27 38 28 5 29 2 30 1 31 21 32
REMARK SMILES IDX 22 33 23 34 24 35 25 36 26 37 32 39 33 40
REMARK H PARENT 26 38
REMARK Flexibility Score: inf
ROOT
ATOM      1  C   UNL     1      10.262  27.859  41.767  1.00  0.00     0.014 A 
ATOM      2  C   UNL     1       9.484  28.823  41.099  1.00  0.00     0.059 A 
ATOM      3  C   UNL     1       9.153  30.046  41.715  1.00  0.00     0.138 A 
ATOM      4  C   UNL     1       9.603  30.285  43.032  1.00  0.00     0.159 A 
ATOM      5  N   UNL     1      10.335  29.325  43.652  1.00  0.00    -0.235 N 
ATOM      6  N   UNL     1      10.801  29.388  44.889  1.00  0.00    -0.175 NA
ATOM      7  C   UNL     1      11.451  28.226  45.126  1.00  0.00     0.155 A 
ATOM      8  C   UNL     1      11.386  27.419  44.001  1.00  0.00     0.098 A 
ATOM      9  C   UNL     1      10.667  28.157  43.078  1.00  0.00     0.092 A 
ENDROOT
BRANCH   1  10
ATOM     10  C   UNL     1      10.653  26.618  41.074  1.00  0.00     0.003 A 
ATOM     11  C   UNL     1      11.378  24.236  39.807  1.00  0.00     0.128 A 
ATOM     12  C   UNL     1      12.229  25.357  39.734  1.00  0.00     0.047 A 
ATOM     13  N   UNL     1      10.211  24.340  40.505  1.00  0.00    -0.239 NA
ATOM     14  C   UNL     1      11.864  26.543  40.374  1.00  0.00     0.014 A 
ATOM     15  C   UNL     1       9.835  25.485  41.132  1.00  0.00     0.122 A 
BRANCH  11  16
ATOM     16  N   UNL     1      11.714  22.984  39.169  1.00  0.00    -0.353 N 
ATOM     17  N   UNL     1      12.119  21.296  37.111  1.00  0.00    -0.289 NA
ATOM     18  C   UNL     1      11.218  20.775  38.150  1.00  0.00     0.078 C 
ATOM     19  C   UNL     1      13.168  21.254  38.144  1.00  0.00     0.078 C 
ATOM     20  C   UNL     1      12.374  20.285  39.017  1.00  0.00     0.042 C 
ATOM     21  C   UNL     1      10.620  22.022  38.843  1.00  0.00     0.137 C 
ATOM     22  C   UNL     1      13.129  22.636  38.839  1.00  0.00     0.137 C 
BRANCH  17  23
ATOM     23  C   UNL     1      12.347  20.299  36.044  1.00  0.00     0.122 C 
BRANCH  23  24
ATOM     24  C   UNL     1      11.342  20.497  34.944  1.00  0.00    -0.015 A 
ATOM     25  C   UNL     1       9.516  20.934  32.884  1.00  0.00     0.212 A 
ATOM     26  N   UNL     1       9.703  21.868  33.861  1.00  0.00    -0.222 NA
ATOM     27  C   UNL     1      10.245  19.743  32.918  1.00  0.00     0.069 A 
ATOM     28  C   UNL     1      10.587  21.679  34.875  1.00  0.00     0.120 A 
ATOM     29  C   UNL     1      11.164  19.527  33.947  1.00  0.00     0.012 A 
BRANCH  25  30
ATOM     30  O   UNL     1       8.605  21.155  31.847  1.00  0.00    -0.481 OA
ATOM     31  C   UNL     1       7.981  20.094  31.134  1.00  0.00     0.280 C 
ENDBRANCH  25  30
ENDBRANCH  23  24
ENDBRANCH  17  23
ENDBRANCH  11  16
ENDBRANCH   1  10
BRANCH   3  32
ATOM     32  O   UNL     1       8.403  30.978  40.978  1.00  0.00    -0.489 OA
BRANCH  32  33
ATOM     33  C   UNL     1       7.402  30.671  40.004  1.00  0.00     0.264 C 
BRANCH  33  34
ATOM     34  C   UNL     1       7.849  31.072  38.578  1.00  0.00     0.093 C 
ATOM     35  C   UNL     1       9.013  32.078  38.681  1.00  0.00     0.045 C 
ATOM     36  C   UNL     1       8.309  29.821  37.806  1.00  0.00     0.045 C 
BRANCH  34  37
ATOM     37  O   UNL     1       6.766  31.672  37.909  1.00  0.00    -0.387 OA
ATOM     38  H   UNL     1       7.126  32.389  37.323  1.00  0.00     0.211 HD
ENDBRANCH  34  37
ENDBRANCH  33  34
ENDBRANCH  32  33
ENDBRANCH   3  32
BRANCH   8  39
ATOM     39  C   UNL     1      11.908  26.083  43.885  1.00  0.00     0.103 C 
ATOM     40  N   UNL     1      12.329  25.010  43.791  1.00  0.00    -0.192 NA
ENDBRANCH   8  39
TORSDOF 10
ENDMDL
MODEL 11
REMARK VINA RESULT:    -7.041     10.966     13.974
REMARK INTER + INTRA:         -12.330
REMARK INTER:                 -10.794
REMARK INTRA:                  -1.536
REMARK UNBOUND:                -1.379
REMARK SMILES COc1ccc(CN2C3CC2CN(c2ccc(-c4cc(OCC(C)(C)O)cn5ncc(C#N)c45)cn2)C3)cn1
REMARK SMILES IDX 18 1 19 2 20 3 27 4 28 5 29 6 30 7 31 8 34 9 17 10 14 11
REMARK SMILES IDX 15 12 36 13 16 14 35 15 13 16 8 17 11 18 9 19 10 20 12 21
REMARK SMILES IDX 37 22 7 23 6 24 3 25 39 26 4 27 38 28 5 29 2 30 1 31 21 32
REMARK SMILES IDX 22 33 23 34 24 35 25 36 26 37 32 39 33 40
REMARK H PARENT 26 38
REMARK Flexibility Score: inf
ROOT
ATOM      1  C   UNL     1      10.101  26.375  40.972  1.00  0.00     0.014 A 
ATOM      2  C   UNL     1       9.779  27.597  40.351  1.00  0.00     0.059 A 
ATOM      3  C   UNL     1       9.754  28.801  41.082  1.00  0.00     0.138 A 
ATOM      4  C   UNL     1      10.044  28.761  42.463  1.00  0.00     0.159 A 
ATOM      5  N   UNL     1      10.332  27.563  43.032  1.00  0.00    -0.235 N 
ATOM      6  N   UNL     1      10.595  27.359  44.313  1.00  0.00    -0.175 NA
ATOM      7  C   UNL     1      10.804  26.033  44.467  1.00  0.00     0.155 A 
ATOM      8  C   UNL     1      10.667  25.395  43.244  1.00  0.00     0.098 A 
ATOM      9  C   UNL     1      10.369  26.407  42.349  1.00  0.00     0.092 A 
ENDROOT
BRANCH   1  10
ATOM     10  C   UNL     1      10.190  25.142  40.170  1.00  0.00     0.003 A 
ATOM     11  C   UNL     1      10.395  22.830  38.614  1.00  0.00     0.128 A 
ATOM     12  C   UNL     1       9.135  23.248  39.088  1.00  0.00     0.047 A 
ATOM     13  N   UNL     1      11.495  23.574  38.925  1.00  0.00    -0.239 NA
ATOM     14  C   UNL     1       9.039  24.408  39.861  1.00  0.00     0.014 A 
ATOM     15  C   UNL     1      11.424  24.702  39.678  1.00  0.00     0.122 A 
BRANCH  11  16
ATOM     16  N   UNL     1      10.547  21.643  37.804  1.00  0.00    -0.353 N 
ATOM     17  N   UNL     1      10.851  20.230  35.533  1.00  0.00    -0.289 NA
ATOM     18  C   UNL     1       9.744  19.772  36.385  1.00  0.00     0.078 C 
ATOM     19  C   UNL     1      11.736  19.808  36.631  1.00  0.00     0.078 C 
ATOM     20  C   UNL     1      10.664  18.919  37.253  1.00  0.00     0.042 C 
ATOM     21  C   UNL     1       9.330  21.003  37.225  1.00  0.00     0.137 C 
ATOM     22  C   UNL     1      11.892  21.047  37.544  1.00  0.00     0.137 C 
BRANCH  17  23
ATOM     23  C   UNL     1      11.001  19.377  34.335  1.00  0.00     0.122 C 
BRANCH  23  24
ATOM     24  C   UNL     1       9.868  19.637  33.383  1.00  0.00    -0.015 A 
ATOM     25  C   UNL     1       7.820  20.144  31.562  1.00  0.00     0.212 A 
ATOM     26  N   UNL     1       8.700  21.125  31.913  1.00  0.00    -0.222 NA
ATOM     27  C   UNL     1       7.944  18.871  32.123  1.00  0.00     0.069 A 
ATOM     28  C   UNL     1       9.707  20.903  32.798  1.00  0.00     0.120 A 
ATOM     29  C   UNL     1       8.973  18.615  33.032  1.00  0.00     0.012 A 
BRANCH  25  30
ATOM     30  O   UNL     1       6.797  20.395  30.642  1.00  0.00    -0.481 OA
ATOM     31  C   UNL     1       7.021  20.443  29.238  1.00  0.00     0.280 C 
ENDBRANCH  25  30
ENDBRANCH  23  24
ENDBRANCH  17  23
ENDBRANCH  11  16
ENDBRANCH   1  10
BRANCH   3  32
ATOM     32  O   UNL     1       9.457  29.989  40.392  1.00  0.00    -0.489 OA
BRANCH  32  33
ATOM     33  C   UNL     1       8.154  30.445  40.024  1.00  0.00     0.264 C 
BRANCH  33  34
ATOM     34  C   UNL     1       8.049  30.713  38.504  1.00  0.00     0.093 C 
ATOM     35  C   UNL     1       7.392  29.495  37.824  1.00  0.00     0.045 C 
ATOM     36  C   UNL     1       7.197  31.971  38.255  1.00  0.00     0.045 C 
BRANCH  34  37
ATOM     37  O   UNL     1       9.341  30.902  37.981  1.00  0.00    -0.387 OA
ATOM     38  H   UNL     1       9.624  30.055  37.545  1.00  0.00     0.211 HD
ENDBRANCH  34  37
ENDBRANCH  33  34
ENDBRANCH  32  33
ENDBRANCH   3  32
BRANCH   8  39
ATOM     39  C   UNL     1      10.758  23.977  43.013  1.00  0.00     0.103 C 
ATOM     40  N   UNL     1      10.830  22.838  42.828  1.00  0.00    -0.192 NA
ENDBRANCH   8  39
TORSDOF 10
ENDMDL
MODEL 12
REMARK VINA RESULT:    -6.905      9.728     13.775
REMARK INTER + INTRA:         -12.120
REMARK INTER:                 -10.726
REMARK INTRA:                  -1.393
REMARK UNBOUND:                -1.379
REMARK SMILES COc1ccc(CN2C3CC2CN(c2ccc(-c4cc(OCC(C)(C)O)cn5ncc(C#N)c45)cn2)C3)cn1
REMARK SMILES IDX 18 1 19 2 20 3 27 4 28 5 29 6 30 7 31 8 34 9 17 10 14 11
REMARK SMILES IDX 15 12 36 13 16 14 35 15 13 16 8 17 11 18 9 19 10 20 12 21
REMARK SMILES IDX 37 22 7 23 6 24 3 25 39 26 4 27 38 28 5 29 2 30 1 31 21 32
REMARK SMILES IDX 22 33 23 34 24 35 25 36 26 37 32 39 33 40
REMARK H PARENT 26 38
REMARK Flexibility Score: inf
ROOT
ATOM      1  C   UNL     1      10.139  26.408  40.167  1.00  0.00     0.014 A 
ATOM      2  C   UNL     1       9.828  27.355  39.173  1.00  0.00     0.059 A 
ATOM      3  C   UNL     1       9.230  28.587  39.501  1.00  0.00     0.138 A 
ATOM      4  C   UNL     1       8.929  28.854  40.855  1.00  0.00     0.159 A 
ATOM      5  N   UNL     1       9.225  27.911  41.784  1.00  0.00    -0.235 N 
ATOM      6  N   UNL     1       8.980  28.000  43.082  1.00  0.00    -0.175 NA
ATOM      7  C   UNL     1       9.405  26.848  43.645  1.00  0.00     0.155 A 
ATOM      8  C   UNL     1       9.932  26.018  42.667  1.00  0.00     0.098 A 
ATOM      9  C   UNL     1       9.803  26.734  41.490  1.00  0.00     0.092 A 
ENDROOT
BRANCH   1  10
ATOM     10  C   UNL     1      10.828  25.157  39.804  1.00  0.00     0.003 A 
ATOM     11  C   UNL     1      12.092  22.755  39.141  1.00  0.00     0.128 A 
ATOM     12  C   UNL     1      12.850  23.831  39.643  1.00  0.00     0.047 A 
ATOM     13  N   UNL     1      10.745  22.911  38.993  1.00  0.00    -0.239 NA
ATOM     14  C   UNL     1      12.211  25.028  39.978  1.00  0.00     0.014 A 
ATOM     15  C   UNL     1      10.105  24.066  39.308  1.00  0.00     0.122 A 
BRANCH  11  16
ATOM     16  N   UNL     1      12.703  21.494  38.788  1.00  0.00    -0.353 N 
ATOM     17  N   UNL     1      13.130  18.839  38.917  1.00  0.00    -0.289 NA
ATOM     18  C   UNL     1      14.351  19.652  39.019  1.00  0.00     0.078 C 
ATOM     19  C   UNL     1      13.014  19.367  37.547  1.00  0.00     0.078 C 
ATOM     20  C   UNL     1      14.482  19.783  37.504  1.00  0.00     0.042 C 
ATOM     21  C   UNL     1      13.891  21.025  39.561  1.00  0.00     0.137 C 
ATOM     22  C   UNL     1      12.174  20.661  37.667  1.00  0.00     0.137 C 
BRANCH  17  23
ATOM     23  C   UNL     1      13.440  17.394  38.934  1.00  0.00     0.122 C 
BRANCH  23  24
ATOM     24  C   UNL     1      12.164  16.602  38.866  1.00  0.00    -0.015 A 
ATOM     25  C   UNL     1       9.757  15.204  38.735  1.00  0.00     0.212 A 
ATOM     26  N   UNL     1       9.966  16.145  39.699  1.00  0.00    -0.222 NA
ATOM     27  C   UNL     1      10.762  14.934  37.802  1.00  0.00     0.069 A 
ATOM     28  C   UNL     1      11.130  16.841  39.785  1.00  0.00     0.120 A 
ATOM     29  C   UNL     1      11.966  15.640  37.865  1.00  0.00     0.012 A 
BRANCH  25  30
ATOM     30  O   UNL     1       8.547  14.507  38.663  1.00  0.00    -0.481 OA
ATOM     31  C   UNL     1       7.680  14.587  37.538  1.00  0.00     0.280 C 
ENDBRANCH  25  30
ENDBRANCH  23  24
ENDBRANCH  17  23
ENDBRANCH  11  16
ENDBRANCH   1  10
BRANCH   3  32
ATOM     32  O   UNL     1       8.978  29.500  38.463  1.00  0.00    -0.489 OA
BRANCH  32  33
ATOM     33  C   UNL     1       7.695  29.987  38.064  1.00  0.00     0.264 C 
BRANCH  33  34
ATOM     34  C   UNL     1       7.439  31.421  38.584  1.00  0.00     0.093 C 
ATOM     35  C   UNL     1       6.599  31.344  39.875  1.00  0.00     0.045 C 
ATOM     36  C   UNL     1       8.782  32.115  38.878  1.00  0.00     0.045 C 
BRANCH  34  37
ATOM     37  O   UNL     1       6.733  32.145  37.606  1.00  0.00    -0.387 OA
ATOM     38  H   UNL     1       7.364  32.781  37.178  1.00  0.00     0.211 HD
ENDBRANCH  34  37
ENDBRANCH  33  34
ENDBRANCH  32  33
ENDBRANCH   3  32
BRANCH   8  39
ATOM     39  C   UNL     1      10.432  24.684  42.867  1.00  0.00     0.103 C 
ATOM     40  N   UNL     1      10.833  23.611  43.026  1.00  0.00    -0.192 NA
ENDBRANCH   8  39
TORSDOF 10
ENDMDL
MODEL 13
REMARK VINA RESULT:    -6.875      6.626     13.432
REMARK INTER + INTRA:         -12.072
REMARK INTER:                 -11.147
REMARK INTRA:                  -0.925
REMARK UNBOUND:                -1.379
REMARK SMILES COc1ccc(CN2C3CC2CN(c2ccc(-c4cc(OCC(C)(C)O)cn5ncc(C#N)c45)cn2)C3)cn1
REMARK SMILES IDX 18 1 19 2 20 3 27 4 28 5 29 6 30 7 31 8 34 9 17 10 14 11
REMARK SMILES IDX 15 12 36 13 16 14 35 15 13 16 8 17 11 18 9 19 10 20 12 21
REMARK SMILES IDX 37 22 7 23 6 24 3 25 39 26 4 27 38 28 5 29 2 30 1 31 21 32
REMARK SMILES IDX 22 33 23 34 24 35 25 36 26 37 32 39 33 40
REMARK H PARENT 26 38
REMARK Flexibility Score: inf
ROOT
ATOM      1  C   UNL     1       8.720  19.898  35.864  1.00  0.00     0.014 A 
ATOM      2  C   UNL     1       8.229  20.260  34.596  1.00  0.00     0.059 A 
ATOM      3  C   UNL     1       7.810  19.284  33.671  1.00  0.00     0.138 A 
ATOM      4  C   UNL     1       7.907  17.922  34.033  1.00  0.00     0.159 A 
ATOM      5  N   UNL     1       8.403  17.609  35.256  1.00  0.00    -0.235 N 
ATOM      6  N   UNL     1       8.582  16.386  35.728  1.00  0.00    -0.175 NA
ATOM      7  C   UNL     1       9.114  16.512  36.964  1.00  0.00     0.155 A 
ATOM      8  C   UNL     1       9.268  17.855  37.269  1.00  0.00     0.098 A 
ATOM      9  C   UNL     1       8.799  18.527  36.154  1.00  0.00     0.092 A 
ENDROOT
BRANCH   1  10
ATOM     10  C   UNL     1       9.085  20.942  36.839  1.00  0.00     0.003 A 
ATOM     11  C   UNL     1       9.825  22.891  38.699  1.00  0.00     0.128 A 
ATOM     12  C   UNL     1       8.493  22.434  38.653  1.00  0.00     0.047 A 
ATOM     13  N   UNL     1      10.732  22.362  37.828  1.00  0.00    -0.239 NA
ATOM     14  C   UNL     1       8.130  21.455  37.725  1.00  0.00     0.014 A 
ATOM     15  C   UNL     1      10.400  21.413  36.915  1.00  0.00     0.122 A 
BRANCH  11  16
ATOM     16  N   UNL     1      10.253  23.895  39.645  1.00  0.00    -0.353 N 
ATOM     17  N   UNL     1      11.697  25.983  40.542  1.00  0.00    -0.289 NA
ATOM     18  C   UNL     1      11.690  24.822  41.444  1.00  0.00     0.078 C 
ATOM     19  C   UNL     1      10.255  26.081  40.821  1.00  0.00     0.078 C 
ATOM     20  C   UNL     1      10.366  25.230  42.084  1.00  0.00     0.042 C 
ATOM     21  C   UNL     1      11.408  23.597  40.543  1.00  0.00     0.137 C 
ATOM     22  C   UNL     1       9.559  25.215  39.744  1.00  0.00     0.137 C 
BRANCH  17  23
ATOM     23  C   UNL     1      12.456  27.112  41.119  1.00  0.00     0.122 C 
BRANCH  23  24
ATOM     24  C   UNL     1      13.927  26.807  41.079  1.00  0.00    -0.015 A 
ATOM     25  C   UNL     1      16.656  26.240  41.088  1.00  0.00     0.212 A 
ATOM     26  N   UNL     1      16.165  27.319  41.763  1.00  0.00    -0.222 NA
ATOM     27  C   UNL     1      15.782  25.411  40.381  1.00  0.00     0.069 A 
ATOM     28  C   UNL     1      14.839  27.617  41.775  1.00  0.00     0.120 A 
ATOM     29  C   UNL     1      14.413  25.692  40.381  1.00  0.00     0.012 A 
BRANCH  25  30
ATOM     30  O   UNL     1      18.024  25.951  41.098  1.00  0.00    -0.481 OA
ATOM     31  C   UNL     1      18.883  26.268  40.009  1.00  0.00     0.280 C 
ENDBRANCH  25  30
ENDBRANCH  23  24
ENDBRANCH  17  23
ENDBRANCH  11  16
ENDBRANCH   1  10
BRANCH   3  32
ATOM     32  O   UNL     1       7.298  19.717  32.435  1.00  0.00    -0.489 OA
BRANCH  32  33
ATOM     33  C   UNL     1       8.062  20.000  31.261  1.00  0.00     0.264 C 
BRANCH  33  34
ATOM     34  C   UNL     1       7.228  19.802  29.974  1.00  0.00     0.093 C 
ATOM     35  C   UNL     1       8.179  19.745  28.762  1.00  0.00     0.045 C 
ATOM     36  C   UNL     1       6.427  18.489  30.069  1.00  0.00     0.045 C 
BRANCH  34  37
ATOM     37  O   UNL     1       6.345  20.888  29.827  1.00  0.00    -0.387 OA
ATOM     38  H   UNL     1       5.782  20.940  30.644  1.00  0.00     0.211 HD
ENDBRANCH  34  37
ENDBRANCH  33  34
ENDBRANCH  32  33
ENDBRANCH   3  32
BRANCH   8  39
ATOM     39  C   UNL     1       9.855  18.390  38.469  1.00  0.00     0.103 C 
ATOM     40  N   UNL     1      10.326  18.819  39.434  1.00  0.00    -0.192 NA
ENDBRANCH   8  39
TORSDOF 10
ENDMDL
MODEL 14
REMARK VINA RESULT:    -6.872      5.543     10.066
REMARK INTER + INTRA:         -12.068
REMARK INTER:                 -11.638
REMARK INTRA:                  -0.429
REMARK UNBOUND:                -1.379
REMARK SMILES COc1ccc(CN2C3CC2CN(c2ccc(-c4cc(OCC(C)(C)O)cn5ncc(C#N)c45)cn2)C3)cn1
REMARK SMILES IDX 18 1 19 2 20 3 27 4 28 5 29 6 30 7 31 8 34 9 17 10 14 11
REMARK SMILES IDX 15 12 36 13 16 14 35 15 13 16 8 17 11 18 9 19 10 20 12 21
REMARK SMILES IDX 37 22 7 23 6 24 3 25 39 26 4 27 38 28 5 29 2 30 1 31 21 32
REMARK SMILES IDX 22 33 23 34 24 35 25 36 26 37 32 39 33 40
REMARK H PARENT 26 38
REMARK Flexibility Score: inf
ROOT
ATOM      1  C   UNL     1      14.875  26.046  40.610  1.00  0.00     0.014 A 
ATOM      2  C   UNL     1      16.262  25.832  40.496  1.00  0.00     0.059 A 
ATOM      3  C   UNL     1      17.186  26.797  40.939  1.00  0.00     0.138 A 
ATOM      4  C   UNL     1      16.697  28.002  41.490  1.00  0.00     0.159 A 
ATOM      5  N   UNL     1      15.354  28.182  41.567  1.00  0.00    -0.235 N 
ATOM      6  N   UNL     1      14.744  29.262  42.029  1.00  0.00    -0.175 NA
ATOM      7  C   UNL     1      13.415  29.046  41.912  1.00  0.00     0.155 A 
ATOM      8  C   UNL     1      13.194  27.793  41.362  1.00  0.00     0.098 A 
ATOM      9  C   UNL     1      14.458  27.269  41.158  1.00  0.00     0.092 A 
ENDROOT
BRANCH   1  10
ATOM     10  C   UNL     1      13.930  24.990  40.204  1.00  0.00     0.003 A 
ATOM     11  C   UNL     1      12.130  23.017  39.384  1.00  0.00     0.128 A 
ATOM     12  C   UNL     1      12.112  23.474  40.718  1.00  0.00     0.047 A 
ATOM     13  N   UNL     1      13.032  23.557  38.516  1.00  0.00    -0.239 NA
ATOM     14  C   UNL     1      13.011  24.464  41.120  1.00  0.00     0.014 A 
ATOM     15  C   UNL     1      13.917  24.518  38.887  1.00  0.00     0.122 A 
BRANCH  11  16
ATOM     16  N   UNL     1      11.215  22.001  38.917  1.00  0.00    -0.353 N 
ATOM     17  N   UNL     1       9.519  20.813  37.197  1.00  0.00    -0.289 NA
ATOM     18  C   UNL     1       8.981  20.981  38.555  1.00  0.00     0.078 C 
ATOM     19  C   UNL     1      10.499  19.900  37.807  1.00  0.00     0.078 C 
ATOM     20  C   UNL     1       9.649  19.706  39.060  1.00  0.00     0.042 C 
ATOM     21  C   UNL     1       9.753  22.176  39.162  1.00  0.00     0.137 C 
ATOM     22  C   UNL     1      11.705  20.783  38.203  1.00  0.00     0.137 C 
BRANCH  17  23
ATOM     23  C   UNL     1       8.563  20.103  36.321  1.00  0.00     0.122 C 
BRANCH  23  24
ATOM     24  C   UNL     1       8.961  20.287  34.883  1.00  0.00    -0.015 A 
ATOM     25  C   UNL     1       9.618  20.640  32.198  1.00  0.00     0.212 A 
ATOM     26  N   UNL     1       8.717  19.689  32.577  1.00  0.00    -0.222 NA
ATOM     27  C   UNL     1      10.222  21.445  33.167  1.00  0.00     0.069 A 
ATOM     28  C   UNL     1       8.379  19.497  33.879  1.00  0.00     0.120 A 
ATOM     29  C   UNL     1       9.888  21.272  34.512  1.00  0.00     0.012 A 
BRANCH  25  30
ATOM     30  O   UNL     1       9.943  20.823  30.850  1.00  0.00    -0.481 OA
ATOM     31  C   UNL     1       9.052  20.488  29.793  1.00  0.00     0.280 C 
ENDBRANCH  25  30
ENDBRANCH  23  24
ENDBRANCH  17  23
ENDBRANCH  11  16
ENDBRANCH   1  10
BRANCH   3  32
ATOM     32  O   UNL     1      18.556  26.505  40.826  1.00  0.00    -0.489 OA
BRANCH  32  33
ATOM     33  C   UNL     1      19.121  25.236  40.487  1.00  0.00     0.264 C 
BRANCH  33  34
ATOM     34  C   UNL     1      20.431  25.390  39.679  1.00  0.00     0.093 C 
ATOM     35  C   UNL     1      21.570  24.668  40.427  1.00  0.00     0.045 C 
ATOM     36  C   UNL     1      20.255  24.772  38.279  1.00  0.00     0.045 C 
BRANCH  34  37
ATOM     37  O   UNL     1      20.740  26.758  39.560  1.00  0.00    -0.387 OA
ATOM     38  H   UNL     1      20.768  26.984  38.594  1.00  0.00     0.211 HD
ENDBRANCH  34  37
ENDBRANCH  33  34
ENDBRANCH  32  33
ENDBRANCH   3  32
BRANCH   8  39
ATOM     39  C   UNL     1      11.913  27.228  41.029  1.00  0.00     0.103 C 
ATOM     40  N   UNL     1      10.884  26.773  40.761  1.00  0.00    -0.192 NA
ENDBRANCH   8  39
TORSDOF 10
ENDMDL
MODEL 15
REMARK VINA RESULT:    -6.796      7.592     12.306
REMARK INTER + INTRA:         -11.949
REMARK INTER:                 -10.573
REMARK INTRA:                  -1.376
REMARK UNBOUND:                -1.379
REMARK SMILES COc1ccc(CN2C3CC2CN(c2ccc(-c4cc(OCC(C)(C)O)cn5ncc(C#N)c45)cn2)C3)cn1
REMARK SMILES IDX 18 1 19 2 20 3 27 4 28 5 29 6 30 7 31 8 34 9 17 10 14 11
REMARK SMILES IDX 15 12 36 13 16 14 35 15 13 16 8 17 11 18 9 19 10 20 12 21
REMARK SMILES IDX 37 22 7 23 6 24 3 25 39 26 4 27 38 28 5 29 2 30 1 31 21 32
REMARK SMILES IDX 22 33 23 34 24 35 25 36 26 37 32 39 33 40
REMARK H PARENT 26 38
REMARK Flexibility Score: inf
ROOT
ATOM      1  C   UNL     1      12.296  24.370  40.406  1.00  0.00     0.014 A 
ATOM      2  C   UNL     1      13.397  25.052  39.856  1.00  0.00     0.059 A 
ATOM      3  C   UNL     1      14.041  26.086  40.564  1.00  0.00     0.138 A 
ATOM      4  C   UNL     1      13.551  26.441  41.840  1.00  0.00     0.159 A 
ATOM      5  N   UNL     1      12.476  25.774  42.331  1.00  0.00    -0.235 N 
ATOM      6  N   UNL     1      11.885  26.009  43.491  1.00  0.00    -0.175 NA
ATOM      7  C   UNL     1      10.848  25.148  43.589  1.00  0.00     0.155 A 
ATOM      8  C   UNL     1      10.795  24.353  42.454  1.00  0.00     0.098 A 
ATOM      9  C   UNL     1      11.854  24.781  41.673  1.00  0.00     0.092 A 
ENDROOT
BRANCH   1  10
ATOM     10  C   UNL     1      11.685  23.245  39.675  1.00  0.00     0.003 A 
ATOM     11  C   UNL     1      10.474  21.138  38.297  1.00  0.00     0.128 A 
ATOM     12  C   UNL     1      11.517  20.874  39.208  1.00  0.00     0.047 A 
ATOM     13  N   UNL     1      10.074  22.429  38.111  1.00  0.00    -0.239 NA
ATOM     14  C   UNL     1      12.114  21.932  39.898  1.00  0.00     0.014 A 
ATOM     15  C   UNL     1      10.643  23.472  38.768  1.00  0.00     0.122 A 
BRANCH  11  16
ATOM     16  N   UNL     1       9.818  20.079  37.565  1.00  0.00    -0.353 N 
ATOM     17  N   UNL     1       8.672  18.897  35.435  1.00  0.00    -0.289 NA
ATOM     18  C   UNL     1       7.861  18.850  36.660  1.00  0.00     0.078 C 
ATOM     19  C   UNL     1       9.630  18.044  36.158  1.00  0.00     0.078 C 
ATOM     20  C   UNL     1       8.586  17.614  37.184  1.00  0.00     0.042 C 
ATOM     21  C   UNL     1       8.326  20.053  37.512  1.00  0.00     0.137 C 
ATOM     22  C   UNL     1      10.602  19.014  36.870  1.00  0.00     0.137 C 
BRANCH  17  23
ATOM     23  C   UNL     1       8.015  18.180  34.322  1.00  0.00     0.122 C 
BRANCH  23  24
ATOM     24  C   UNL     1       8.271  18.904  33.031  1.00  0.00    -0.015 A 
ATOM     25  C   UNL     1       8.670  20.279  30.640  1.00  0.00     0.212 A 
ATOM     26  N   UNL     1       7.620  19.422  30.785  1.00  0.00    -0.222 NA
ATOM     27  C   UNL     1       9.560  20.469  31.700  1.00  0.00     0.069 A 
ATOM     28  C   UNL     1       7.402  18.740  31.940  1.00  0.00     0.120 A 
ATOM     29  C   UNL     1       9.356  19.783  32.900  1.00  0.00     0.012 A 
BRANCH  25  30
ATOM     30  O   UNL     1       8.868  20.975  29.443  1.00  0.00    -0.481 OA
ATOM     31  C   UNL     1       7.811  21.249  28.531  1.00  0.00     0.280 C 
ENDBRANCH  25  30
ENDBRANCH  23  24
ENDBRANCH  17  23
ENDBRANCH  11  16
ENDBRANCH   1  10
BRANCH   3  32
ATOM     32  O   UNL     1      15.156  26.702  39.970  1.00  0.00    -0.489 OA
BRANCH  32  33
ATOM     33  C   UNL     1      16.527  26.392  40.228  1.00  0.00     0.264 C 
BRANCH  33  34
ATOM     34  C   UNL     1      17.330  27.647  40.643  1.00  0.00     0.093 C 
ATOM     35  C   UNL     1      16.734  28.218  41.945  1.00  0.00     0.045 C 
ATOM     36  C   UNL     1      18.806  27.270  40.868  1.00  0.00     0.045 C 
BRANCH  34  37
ATOM     37  O   UNL     1      17.235  28.611  39.622  1.00  0.00    -0.387 OA
ATOM     38  H   UNL     1      17.798  28.309  38.861  1.00  0.00     0.211 HD
ENDBRANCH  34  37
ENDBRANCH  33  34
ENDBRANCH  32  33
ENDBRANCH   3  32
BRANCH   8  39
ATOM     39  C   UNL     1       9.797  23.358  42.162  1.00  0.00     0.103 C 
ATOM     40  N   UNL     1       8.997  22.558  41.926  1.00  0.00    -0.192 NA
ENDBRANCH   8  39
TORSDOF 10
ENDMDL
