MODEL 1
REMARK VINA RESULT:   -10.301      0.000      0.000
REMARK INTER + INTRA:         -16.021
REMARK INTER:                 -15.118
REMARK INTRA:                  -0.903
REMARK UNBOUND:                -0.903
REMARK SMILES CO[C@]1(C(=O)N[C@@H](C)c2ccc(-n3cc(F)cn3)nc2)CC[C@H](c2nc(C)cc(Nc3cc(C)[nH]n3)n2)CC1
REMARK SMILES IDX 3 1 21 2 22 3 23 4 38 5 39 6 2 7 1 8 4 9 5 10 6 11 7 13 8 14
REMARK SMILES IDX 9 15 10 16 20 17 11 18 19 19 12 20 13 21 14 22 18 23 15 24
REMARK SMILES IDX 17 25 16 26 24 27 37 28 25 29 29 30 26 31 28 32 27 33 30 34
REMARK SMILES IDX 31 36 36 37 32 38 35 39 33 40 34 42
REMARK H PARENT 6 12 30 35 35 41
REMARK Flexibility Score: inf
ROOT
ATOM      1  C   UNL     1      30.422  10.802   9.472  1.00  0.00     0.146 C 
ATOM      2  C   UNL     1      29.418  11.533   8.528  1.00  0.00     0.046 C 
ATOM      3  C   UNL     1      28.020  11.618   9.154  1.00  0.00     0.015 C 
ATOM      4  C   UNL     1      27.475  10.216   9.484  1.00  0.00     0.058 C 
ATOM      5  C   UNL     1      28.466   9.425  10.368  1.00  0.00     0.015 C 
ATOM      6  C   UNL     1      29.867   9.382   9.739  1.00  0.00     0.046 C 
ENDROOT
BRANCH   1   7
ATOM      7  O   UNL     1      30.549  11.453  10.740  1.00  0.00    -0.368 OA
ATOM      8  C   UNL     1      31.107  12.752  10.661  1.00  0.00     0.196 C 
ENDBRANCH   1   7
BRANCH   1   9
ATOM      9  C   UNL     1      31.784  10.630   8.814  1.00  0.00     0.252 C 
ATOM     10  O   UNL     1      32.023  11.180   7.704  1.00  0.00    -0.272 OA
ATOM     11  N   UNL     1      32.778   9.787   9.425  1.00  0.00    -0.347 N 
ATOM     12  H   UNL     1      32.532   9.285  10.312  1.00  0.00     0.164 HD
BRANCH  11  13
ATOM     13  C   UNL     1      34.129   9.607   8.879  1.00  0.00     0.111 C 
ATOM     14  C   UNL     1      35.166   9.926   9.956  1.00  0.00     0.036 C 
BRANCH  13  15
ATOM     15  C   UNL     1      34.331   8.200   8.348  1.00  0.00    -0.007 A 
ATOM     16  C   UNL     1      33.319   7.224   8.409  1.00  0.00     0.011 A 
ATOM     17  C   UNL     1      35.599   7.810   7.882  1.00  0.00     0.119 A 
ATOM     18  C   UNL     1      33.573   5.918   7.982  1.00  0.00     0.049 A 
ATOM     19  N   UNL     1      35.827   6.530   7.486  1.00  0.00    -0.237 NA
ATOM     20  C   UNL     1      34.857   5.574   7.516  1.00  0.00     0.153 A 
BRANCH  20  21
ATOM     21  N   UNL     1      35.183   4.235   7.098  1.00  0.00    -0.220 N 
ATOM     22  C   UNL     1      35.206   3.748   5.837  1.00  0.00     0.156 A 
ATOM     23  N   UNL     1      35.497   3.268   7.953  1.00  0.00    -0.172 NA
ATOM     24  C   UNL     1      35.556   2.418   5.907  1.00  0.00     0.161 A 
ATOM     25  C   UNL     1      35.731   2.144   7.247  1.00  0.00     0.174 A 
ATOM     26  F   UNL     1      35.689   1.553   4.872  1.00  0.00    -0.204 F 
ENDBRANCH  20  21
ENDBRANCH  13  15
ENDBRANCH  11  13
ENDBRANCH   1   9
BRANCH   4  27
ATOM     27  C   UNL     1      26.130  10.353  10.149  1.00  0.00     0.134 A 
ATOM     28  N   UNL     1      25.753  11.538  10.702  1.00  0.00    -0.215 NA
ATOM     29  N   UNL     1      25.236   9.329  10.083  1.00  0.00    -0.238 NA
ATOM     30  C   UNL     1      24.506  11.726  11.204  1.00  0.00     0.135 A 
ATOM     31  C   UNL     1      23.981   9.458  10.587  1.00  0.00     0.043 A 
ATOM     32  C   UNL     1      23.587  10.670  11.166  1.00  0.00     0.070 A 
ATOM     33  C   UNL     1      23.030   8.309  10.513  1.00  0.00     0.067 C 
BRANCH  30  34
ATOM     34  N   UNL     1      24.183  12.978  11.824  1.00  0.00    -0.323 N 
ATOM     35  H   UNL     1      23.389  12.996  12.496  1.00  0.00     0.170 HD
BRANCH  34  36
ATOM     36  C   UNL     1      24.911  14.195  11.605  1.00  0.00     0.153 A 
ATOM     37  N   UNL     1      24.600  15.356  12.217  1.00  0.00    -0.158 NA
ATOM     38  C   UNL     1      26.059  14.345  10.839  1.00  0.00     0.071 A 
ATOM     39  N   UNL     1      25.509  16.248  11.854  1.00  0.00    -0.281 N 
ATOM     40  C   UNL     1      26.404  15.668  11.030  1.00  0.00     0.034 A 
ATOM     41  H   UNL     1      25.534  17.232  12.194  1.00  0.00     0.190 HD
ATOM     42  C   UNL     1      27.574  16.370  10.415  1.00  0.00     0.066 C 
ENDBRANCH  34  36
ENDBRANCH  30  34
ENDBRANCH   4  27
TORSDOF 8
ENDMDL
MODEL 2
REMARK VINA RESULT:   -10.192      0.840      1.074
REMARK INTER + INTRA:         -15.861
REMARK INTER:                 -14.974
REMARK INTRA:                  -0.887
REMARK UNBOUND:                -0.903
REMARK SMILES CO[C@]1(C(=O)N[C@@H](C)c2ccc(-n3cc(F)cn3)nc2)CC[C@H](c2nc(C)cc(Nc3cc(C)[nH]n3)n2)CC1
REMARK SMILES IDX 3 1 21 2 22 3 23 4 38 5 39 6 2 7 1 8 4 9 5 10 6 11 7 13 8 14
REMARK SMILES IDX 9 15 10 16 20 17 11 18 19 19 12 20 13 21 14 22 18 23 15 24
REMARK SMILES IDX 17 25 16 26 24 27 37 28 25 29 29 30 26 31 28 32 27 33 30 34
REMARK SMILES IDX 31 36 36 37 32 38 35 39 33 40 34 42
REMARK H PARENT 6 12 30 35 35 41
REMARK Flexibility Score: inf
ROOT
ATOM      1  C   UNL     1      30.522  10.674   9.339  1.00  0.00     0.146 C 
ATOM      2  C   UNL     1      29.533  11.520   8.478  1.00  0.00     0.046 C 
ATOM      3  C   UNL     1      28.143  11.584   9.123  1.00  0.00     0.015 C 
ATOM      4  C   UNL     1      27.559  10.173   9.324  1.00  0.00     0.058 C 
ATOM      5  C   UNL     1      28.534   9.274  10.120  1.00  0.00     0.015 C 
ATOM      6  C   UNL     1      29.929   9.251   9.476  1.00  0.00     0.046 C 
ENDROOT
BRANCH   1   7
ATOM      7  O   UNL     1      30.677  11.198  10.662  1.00  0.00    -0.368 OA
ATOM      8  C   UNL     1      31.255  12.490  10.699  1.00  0.00     0.196 C 
ENDBRANCH   1   7
BRANCH   1   9
ATOM      9  C   UNL     1      31.874  10.527   8.654  1.00  0.00     0.252 C 
ATOM     10  O   UNL     1      32.129  11.190   7.612  1.00  0.00    -0.272 OA
ATOM     11  N   UNL     1      32.837   9.583   9.158  1.00  0.00    -0.347 N 
ATOM     12  H   UNL     1      32.577   8.994   9.984  1.00  0.00     0.164 HD
BRANCH  11  13
ATOM     13  C   UNL     1      34.178   9.416   8.583  1.00  0.00     0.111 C 
ATOM     14  C   UNL     1      35.220   9.402   9.703  1.00  0.00     0.036 C 
BRANCH  13  15
ATOM     15  C   UNL     1      34.273   8.149   7.754  1.00  0.00    -0.007 A 
ATOM     16  C   UNL     1      33.671   6.943   8.158  1.00  0.00     0.011 A 
ATOM     17  C   UNL     1      35.079   8.134   6.601  1.00  0.00     0.119 A 
ATOM     18  C   UNL     1      33.851   5.780   7.404  1.00  0.00     0.049 A 
ATOM     19  N   UNL     1      35.251   6.986   5.893  1.00  0.00    -0.237 NA
ATOM     20  C   UNL     1      34.661   5.812   6.252  1.00  0.00     0.153 A 
BRANCH  20  21
ATOM     21  N   UNL     1      34.909   4.635   5.461  1.00  0.00    -0.220 N 
ATOM     22  C   UNL     1      35.130   3.377   5.904  1.00  0.00     0.156 A 
ATOM     23  N   UNL     1      34.971   4.656   4.134  1.00  0.00    -0.172 NA
ATOM     24  C   UNL     1      35.334   2.575   4.803  1.00  0.00     0.161 A 
ATOM     25  C   UNL     1      35.229   3.405   3.707  1.00  0.00     0.174 A 
ATOM     26  F   UNL     1      35.595   1.245   4.799  1.00  0.00    -0.204 F 
ENDBRANCH  20  21
ENDBRANCH  13  15
ENDBRANCH  11  13
ENDBRANCH   1   9
BRANCH   4  27
ATOM     27  C   UNL     1      26.224  10.284  10.013  1.00  0.00     0.134 A 
ATOM     28  N   UNL     1      25.840  11.458  10.584  1.00  0.00    -0.215 NA
ATOM     29  N   UNL     1      25.344   9.248   9.952  1.00  0.00    -0.238 NA
ATOM     30  C   UNL     1      24.598  11.623  11.108  1.00  0.00     0.135 A 
ATOM     31  C   UNL     1      24.095   9.354  10.477  1.00  0.00     0.043 A 
ATOM     32  C   UNL     1      23.694  10.554  11.075  1.00  0.00     0.070 A 
ATOM     33  C   UNL     1      23.160   8.192  10.408  1.00  0.00     0.067 C 
BRANCH  30  34
ATOM     34  N   UNL     1      24.267  12.865  11.745  1.00  0.00    -0.323 N 
ATOM     35  H   UNL     1      23.499  12.860  12.446  1.00  0.00     0.170 HD
BRANCH  34  36
ATOM     36  C   UNL     1      24.956  14.100  11.504  1.00  0.00     0.153 A 
ATOM     37  N   UNL     1      24.551  15.278  12.023  1.00  0.00    -0.158 NA
ATOM     38  C   UNL     1      26.149  14.260  10.813  1.00  0.00     0.071 A 
ATOM     39  N   UNL     1      25.445  16.190  11.670  1.00  0.00    -0.281 N 
ATOM     40  C   UNL     1      26.422  15.607  10.948  1.00  0.00     0.034 A 
ATOM     41  H   UNL     1      25.402  17.192  11.952  1.00  0.00     0.190 HD
ATOM     42  C   UNL     1      27.601  16.328  10.374  1.00  0.00     0.066 C 
ENDBRANCH  34  36
ENDBRANCH  30  34
ENDBRANCH   4  27
TORSDOF 8
ENDMDL
MODEL 3
REMARK VINA RESULT:   -10.074      2.690      4.650
REMARK INTER + INTRA:         -15.689
REMARK INTER:                 -14.764
REMARK INTRA:                  -0.925
REMARK UNBOUND:                -0.903
REMARK SMILES CO[C@]1(C(=O)N[C@@H](C)c2ccc(-n3cc(F)cn3)nc2)CC[C@H](c2nc(C)cc(Nc3cc(C)[nH]n3)n2)CC1
REMARK SMILES IDX 3 1 21 2 22 3 23 4 38 5 39 6 2 7 1 8 4 9 5 10 6 11 7 13 8 14
REMARK SMILES IDX 9 15 10 16 20 17 11 18 19 19 12 20 13 21 14 22 18 23 15 24
REMARK SMILES IDX 17 25 16 26 24 27 37 28 25 29 29 30 26 31 28 32 27 33 30 34
REMARK SMILES IDX 31 36 36 37 32 38 35 39 33 40 34 42
REMARK H PARENT 6 12 30 35 35 41
REMARK Flexibility Score: inf
ROOT
ATOM      1  C   UNL     1      30.946  10.318   9.432  1.00  0.00     0.146 C 
ATOM      2  C   UNL     1      29.661   9.591   9.935  1.00  0.00     0.046 C 
ATOM      3  C   UNL     1      28.467  10.551  10.009  1.00  0.00     0.015 C 
ATOM      4  C   UNL     1      28.771  11.743  10.937  1.00  0.00     0.058 C 
ATOM      5  C   UNL     1      30.074  12.459  10.516  1.00  0.00     0.015 C 
ATOM      6  C   UNL     1      31.249  11.474  10.415  1.00  0.00     0.046 C 
ENDROOT
BRANCH   1   7
ATOM      7  O   UNL     1      30.771  10.898   8.136  1.00  0.00    -0.368 OA
ATOM      8  C   UNL     1      31.900  11.619   7.676  1.00  0.00     0.196 C 
ENDBRANCH   1   7
BRANCH   1   9
ATOM      9  C   UNL     1      32.155   9.392   9.450  1.00  0.00     0.252 C 
ATOM     10  O   UNL     1      33.126   9.638  10.218  1.00  0.00    -0.272 OA
ATOM     11  N   UNL     1      32.221   8.275   8.546  1.00  0.00    -0.347 N 
ATOM     12  H   UNL     1      31.434   8.131   7.869  1.00  0.00     0.164 HD
BRANCH  11  13
ATOM     13  C   UNL     1      33.329   7.311   8.534  1.00  0.00     0.111 C 
ATOM     14  C   UNL     1      32.774   5.889   8.613  1.00  0.00     0.036 C 
BRANCH  13  15
ATOM     15  C   UNL     1      34.195   7.476   7.300  1.00  0.00    -0.007 A 
ATOM     16  C   UNL     1      34.835   8.690   6.989  1.00  0.00     0.011 A 
ATOM     17  C   UNL     1      34.281   6.426   6.367  1.00  0.00     0.119 A 
ATOM     18  C   UNL     1      35.558   8.822   5.801  1.00  0.00     0.049 A 
ATOM     19  N   UNL     1      34.977   6.583   5.211  1.00  0.00    -0.237 NA
ATOM     20  C   UNL     1      35.622   7.742   4.899  1.00  0.00     0.153 A 
BRANCH  20  21
ATOM     21  N   UNL     1      36.322   7.836   3.645  1.00  0.00    -0.220 N 
ATOM     22  C   UNL     1      36.299   6.953   2.620  1.00  0.00     0.156 A 
ATOM     23  N   UNL     1      37.129   8.847   3.342  1.00  0.00    -0.172 NA
ATOM     24  C   UNL     1      37.126   7.437   1.631  1.00  0.00     0.161 A 
ATOM     25  C   UNL     1      37.633   8.626   2.112  1.00  0.00     0.174 A 
ATOM     26  F   UNL     1      37.393   6.858   0.435  1.00  0.00    -0.204 F 
ENDBRANCH  20  21
ENDBRANCH  13  15
ENDBRANCH  11  13
ENDBRANCH   1   9
BRANCH   4  27
ATOM     27  C   UNL     1      27.596  12.686  10.931  1.00  0.00     0.134 A 
ATOM     28  N   UNL     1      26.367  12.256  11.330  1.00  0.00    -0.215 NA
ATOM     29  N   UNL     1      27.788  14.003  10.650  1.00  0.00    -0.238 NA
ATOM     30  C   UNL     1      25.317  13.110  11.446  1.00  0.00     0.135 A 
ATOM     31  C   UNL     1      26.767  14.896  10.732  1.00  0.00     0.043 A 
ATOM     32  C   UNL     1      25.497  14.463  11.133  1.00  0.00     0.070 A 
ATOM     33  C   UNL     1      27.008  16.331  10.400  1.00  0.00     0.067 C 
BRANCH  30  34
ATOM     34  N   UNL     1      24.033  12.592  11.819  1.00  0.00    -0.323 N 
ATOM     35  H   UNL     1      23.365  13.240  12.283  1.00  0.00     0.170 HD
BRANCH  34  36
ATOM     36  C   UNL     1      23.600  11.249  11.556  1.00  0.00     0.153 A 
ATOM     37  N   UNL     1      22.581  10.665  12.218  1.00  0.00    -0.158 NA
ATOM     38  C   UNL     1      24.073  10.409  10.557  1.00  0.00     0.071 A 
ATOM     39  N   UNL     1      22.398   9.468  11.680  1.00  0.00    -0.281 N 
ATOM     40  C   UNL     1      23.276   9.288  10.674  1.00  0.00     0.034 A 
ATOM     41  H   UNL     1      21.656   8.799  11.977  1.00  0.00     0.190 HD
ATOM     42  C   UNL     1      23.369   8.051   9.837  1.00  0.00     0.066 C 
ENDBRANCH  34  36
ENDBRANCH  30  34
ENDBRANCH   4  27
TORSDOF 8
ENDMDL
MODEL 4
REMARK VINA RESULT:    -9.964      4.224     12.461
REMARK INTER + INTRA:         -15.527
REMARK INTER:                 -14.384
REMARK INTRA:                  -1.143
REMARK UNBOUND:                -0.903
REMARK SMILES CO[C@]1(C(=O)N[C@@H](C)c2ccc(-n3cc(F)cn3)nc2)CC[C@H](c2nc(C)cc(Nc3cc(C)[nH]n3)n2)CC1
REMARK SMILES IDX 3 1 21 2 22 3 23 4 38 5 39 6 2 7 1 8 4 9 5 10 6 11 7 13 8 14
REMARK SMILES IDX 9 15 10 16 20 17 11 18 19 19 12 20 13 21 14 22 18 23 15 24
REMARK SMILES IDX 17 25 16 26 24 27 37 28 25 29 29 30 26 31 28 32 27 33 30 34
REMARK SMILES IDX 31 36 36 37 32 38 35 39 33 40 34 42
REMARK H PARENT 6 12 30 35 35 41
REMARK Flexibility Score: inf
ROOT
ATOM      1  C   UNL     1      27.763  10.358   9.572  1.00  0.00     0.146 C 
ATOM      2  C   UNL     1      28.289  10.114   8.124  1.00  0.00     0.046 C 
ATOM      3  C   UNL     1      29.552   9.243   8.125  1.00  0.00     0.015 C 
ATOM      4  C   UNL     1      30.669   9.888   8.968  1.00  0.00     0.058 C 
ATOM      5  C   UNL     1      30.175  10.207  10.397  1.00  0.00     0.015 C 
ATOM      6  C   UNL     1      28.891  11.051  10.372  1.00  0.00     0.046 C 
ENDROOT
BRANCH   1   7
ATOM      7  O   UNL     1      27.451   9.136  10.250  1.00  0.00    -0.368 OA
ATOM      8  C   UNL     1      26.364   8.429   9.680  1.00  0.00     0.196 C 
ENDBRANCH   1   7
BRANCH   1   9
ATOM      9  C   UNL     1      26.568  11.301   9.581  1.00  0.00     0.252 C 
ATOM     10  O   UNL     1      26.062  11.689   8.493  1.00  0.00    -0.272 OA
ATOM     11  N   UNL     1      26.055  11.802  10.829  1.00  0.00    -0.347 N 
ATOM     12  H   UNL     1      26.536  11.520  11.717  1.00  0.00     0.164 HD
BRANCH  11  13
ATOM     13  C   UNL     1      24.879  12.676  10.925  1.00  0.00     0.111 C 
ATOM     14  C   UNL     1      23.925  12.139  11.993  1.00  0.00     0.036 C 
BRANCH  13  15
ATOM     15  C   UNL     1      25.275  14.107  11.238  1.00  0.00    -0.007 A 
ATOM     16  C   UNL     1      26.514  14.645  10.843  1.00  0.00     0.011 A 
ATOM     17  C   UNL     1      24.437  14.898  12.045  1.00  0.00     0.119 A 
ATOM     18  C   UNL     1      26.871  15.942  11.221  1.00  0.00     0.049 A 
ATOM     19  N   UNL     1      24.813  16.151  12.413  1.00  0.00    -0.237 NA
ATOM     20  C   UNL     1      25.997  16.701  12.024  1.00  0.00     0.153 A 
BRANCH  20  21
ATOM     21  N   UNL     1      26.332  18.027  12.473  1.00  0.00    -0.220 N 
ATOM     22  C   UNL     1      26.283  19.175  11.758  1.00  0.00     0.156 A 
ATOM     23  N   UNL     1      26.768  18.287  13.700  1.00  0.00    -0.172 NA
ATOM     24  C   UNL     1      26.703  20.198  12.579  1.00  0.00     0.161 A 
ATOM     25  C   UNL     1      27.002  19.611  13.790  1.00  0.00     0.174 A 
ATOM     26  F   UNL     1      26.812  21.510  12.257  1.00  0.00    -0.204 F 
ENDBRANCH  20  21
ENDBRANCH  13  15
ENDBRANCH  11  13
ENDBRANCH   1   9
BRANCH   4  27
ATOM     27  C   UNL     1      31.863   8.971   8.989  1.00  0.00     0.134 A 
ATOM     28  N   UNL     1      31.705   7.630   8.812  1.00  0.00    -0.215 NA
ATOM     29  N   UNL     1      33.117   9.495   9.053  1.00  0.00    -0.238 NA
ATOM     30  C   UNL     1      32.771   6.794   8.710  1.00  0.00     0.135 A 
ATOM     31  C   UNL     1      34.217   8.701   8.975  1.00  0.00     0.043 A 
ATOM     32  C   UNL     1      34.065   7.320   8.803  1.00  0.00     0.070 A 
ATOM     33  C   UNL     1      35.578   9.308   9.066  1.00  0.00     0.067 C 
BRANCH  30  34
ATOM     34  N   UNL     1      32.543   5.384   8.579  1.00  0.00    -0.323 N 
ATOM     35  H   UNL     1      31.581   5.031   8.758  1.00  0.00     0.170 HD
BRANCH  34  36
ATOM     36  C   UNL     1      33.547   4.441   8.178  1.00  0.00     0.153 A 
ATOM     37  N   UNL     1      33.899   3.380   8.932  1.00  0.00    -0.158 NA
ATOM     38  C   UNL     1      34.215   4.413   6.961  1.00  0.00     0.071 A 
ATOM     39  N   UNL     1      34.786   2.682   8.239  1.00  0.00    -0.281 N 
ATOM     40  C   UNL     1      34.991   3.274   7.045  1.00  0.00     0.034 A 
ATOM     41  H   UNL     1      35.217   1.792   8.566  1.00  0.00     0.190 HD
ATOM     42  C   UNL     1      35.931   2.770   5.996  1.00  0.00     0.066 C 
ENDBRANCH  34  36
ENDBRANCH  30  34
ENDBRANCH   4  27
TORSDOF 8
ENDMDL
MODEL 5
REMARK VINA RESULT:    -9.942      4.238     13.056
REMARK INTER + INTRA:         -15.494
REMARK INTER:                 -14.575
REMARK INTRA:                  -0.919
REMARK UNBOUND:                -0.903
REMARK SMILES CO[C@]1(C(=O)N[C@@H](C)c2ccc(-n3cc(F)cn3)nc2)CC[C@H](c2nc(C)cc(Nc3cc(C)[nH]n3)n2)CC1
REMARK SMILES IDX 3 1 21 2 22 3 23 4 38 5 39 6 2 7 1 8 4 9 5 10 6 11 7 13 8 14
REMARK SMILES IDX 9 15 10 16 20 17 11 18 19 19 12 20 13 21 14 22 18 23 15 24
REMARK SMILES IDX 17 25 16 26 24 27 37 28 25 29 29 30 26 31 28 32 27 33 30 34
REMARK SMILES IDX 31 36 36 37 32 38 35 39 33 40 34 42
REMARK H PARENT 6 12 30 35 35 41
REMARK Flexibility Score: inf
ROOT
ATOM      1  C   UNL     1      34.864   7.238   7.161  1.00  0.00     0.146 C 
ATOM      2  C   UNL     1      36.342   6.778   7.359  1.00  0.00     0.046 C 
ATOM      3  C   UNL     1      36.778   5.805   6.257  1.00  0.00     0.015 C 
ATOM      4  C   UNL     1      35.864   4.566   6.217  1.00  0.00     0.058 C 
ATOM      5  C   UNL     1      34.379   4.973   6.086  1.00  0.00     0.015 C 
ATOM      6  C   UNL     1      33.972   5.973   7.179  1.00  0.00     0.046 C 
ENDROOT
BRANCH   1   7
ATOM      7  O   UNL     1      34.659   7.883   5.901  1.00  0.00    -0.368 OA
ATOM      8  C   UNL     1      35.392   9.086   5.750  1.00  0.00     0.196 C 
ENDBRANCH   1   7
BRANCH   1   9
ATOM      9  C   UNL     1      34.397   8.126   8.306  1.00  0.00     0.252 C 
ATOM     10  O   UNL     1      35.224   8.531   9.168  1.00  0.00    -0.272 OA
ATOM     11  N   UNL     1      33.001   8.451   8.442  1.00  0.00    -0.347 N 
ATOM     12  H   UNL     1      32.323   8.045   7.754  1.00  0.00     0.164 HD
BRANCH  11  13
ATOM     13  C   UNL     1      32.478   9.338   9.489  1.00  0.00     0.111 C 
ATOM     14  C   UNL     1      32.806  10.791   9.143  1.00  0.00     0.036 C 
BRANCH  13  15
ATOM     15  C   UNL     1      30.983   9.160   9.673  1.00  0.00    -0.007 A 
ATOM     16  C   UNL     1      30.287   8.062   9.132  1.00  0.00     0.011 A 
ATOM     17  C   UNL     1      30.236  10.171  10.303  1.00  0.00     0.119 A 
ATOM     18  C   UNL     1      28.898   7.979   9.257  1.00  0.00     0.049 A 
ATOM     19  N   UNL     1      28.883  10.076  10.398  1.00  0.00    -0.237 NA
ATOM     20  C   UNL     1      28.191   9.013   9.902  1.00  0.00     0.153 A 
BRANCH  20  21
ATOM     21  N   UNL     1      26.757   8.994  10.025  1.00  0.00    -0.220 N 
ATOM     22  C   UNL     1      25.944   7.913  10.023  1.00  0.00     0.156 A 
ATOM     23  N   UNL     1      26.027  10.098  10.142  1.00  0.00    -0.172 NA
ATOM     24  C   UNL     1      24.648   8.363  10.149  1.00  0.00     0.161 A 
ATOM     25  C   UNL     1      24.731   9.738  10.221  1.00  0.00     0.174 A 
ATOM     26  F   UNL     1      23.522   7.609  10.185  1.00  0.00    -0.204 F 
ENDBRANCH  20  21
ENDBRANCH  13  15
ENDBRANCH  11  13
ENDBRANCH   1   9
BRANCH   4  27
ATOM     27  C   UNL     1      36.294   3.671   5.085  1.00  0.00     0.134 A 
ATOM     28  N   UNL     1      35.491   2.652   4.670  1.00  0.00    -0.215 NA
ATOM     29  N   UNL     1      37.426   3.959   4.387  1.00  0.00    -0.238 NA
ATOM     30  C   UNL     1      35.797   1.903   3.579  1.00  0.00     0.135 A 
ATOM     31  C   UNL     1      37.788   3.229   3.299  1.00  0.00     0.043 A 
ATOM     32  C   UNL     1      36.974   2.174   2.871  1.00  0.00     0.070 A 
ATOM     33  C   UNL     1      39.045   3.563   2.567  1.00  0.00     0.067 C 
BRANCH  30  34
ATOM     34  N   UNL     1      34.942   0.808   3.221  1.00  0.00    -0.323 N 
ATOM     35  H   UNL     1      34.278   0.457   3.941  1.00  0.00     0.170 HD
BRANCH  34  36
ATOM     36  C   UNL     1      34.918   0.198   1.923  1.00  0.00     0.153 A 
ATOM     37  N   UNL     1      33.881   0.329   1.071  1.00  0.00    -0.158 NA
ATOM     38  C   UNL     1      35.950  -0.511   1.324  1.00  0.00     0.071 A 
ATOM     39  N   UNL     1      34.215  -0.289  -0.052  1.00  0.00    -0.281 N 
ATOM     40  C   UNL     1      35.457  -0.798   0.067  1.00  0.00     0.034 A 
ATOM     41  H   UNL     1      33.612  -0.329  -0.901  1.00  0.00     0.190 HD
ATOM     42  C   UNL     1      36.167  -1.567  -1.003  1.00  0.00     0.066 C 
ENDBRANCH  34  36
ENDBRANCH  30  34
ENDBRANCH   4  27
TORSDOF 8
ENDMDL
MODEL 6
REMARK VINA RESULT:    -9.845      1.292      3.679
REMARK INTER + INTRA:         -15.352
REMARK INTER:                 -14.849
REMARK INTRA:                  -0.503
REMARK UNBOUND:                -0.903
REMARK SMILES CO[C@]1(C(=O)N[C@@H](C)c2ccc(-n3cc(F)cn3)nc2)CC[C@H](c2nc(C)cc(Nc3cc(C)[nH]n3)n2)CC1
REMARK SMILES IDX 3 1 21 2 22 3 23 4 38 5 39 6 2 7 1 8 4 9 5 10 6 11 7 13 8 14
REMARK SMILES IDX 9 15 10 16 20 17 11 18 19 19 12 20 13 21 14 22 18 23 15 24
REMARK SMILES IDX 17 25 16 26 24 27 37 28 25 29 29 30 26 31 28 32 27 33 30 34
REMARK SMILES IDX 31 36 36 37 32 38 35 39 33 40 34 42
REMARK H PARENT 6 12 30 35 35 41
REMARK Flexibility Score: inf
ROOT
ATOM      1  C   UNL     1      30.444  11.333   9.809  1.00  0.00     0.146 C 
ATOM      2  C   UNL     1      30.371  12.703  10.552  1.00  0.00     0.046 C 
ATOM      3  C   UNL     1      28.950  12.996  11.051  1.00  0.00     0.015 C 
ATOM      4  C   UNL     1      27.943  12.997   9.886  1.00  0.00     0.058 C 
ATOM      5  C   UNL     1      28.021  11.682   9.079  1.00  0.00     0.015 C 
ATOM      6  C   UNL     1      29.458  11.391   8.617  1.00  0.00     0.046 C 
ENDROOT
BRANCH   1   7
ATOM      7  O   UNL     1      30.039  10.241  10.641  1.00  0.00    -0.368 OA
ATOM      8  C   UNL     1      29.869   9.022   9.940  1.00  0.00     0.196 C 
ENDBRANCH   1   7
BRANCH   1   9
ATOM      9  C   UNL     1      31.828  11.085   9.227  1.00  0.00     0.252 C 
ATOM     10  O   UNL     1      32.036  11.263   7.996  1.00  0.00    -0.272 OA
ATOM     11  N   UNL     1      32.884  10.584  10.068  1.00  0.00    -0.347 N 
ATOM     12  H   UNL     1      32.669  10.378  11.073  1.00  0.00     0.164 HD
BRANCH  11  13
ATOM     13  C   UNL     1      34.256  10.364   9.594  1.00  0.00     0.111 C 
ATOM     14  C   UNL     1      35.228  10.460  10.770  1.00  0.00     0.036 C 
BRANCH  13  15
ATOM     15  C   UNL     1      34.395   9.023   8.899  1.00  0.00    -0.007 A 
ATOM     16  C   UNL     1      33.360   8.069   8.897  1.00  0.00     0.011 A 
ATOM     17  C   UNL     1      35.630   8.660   8.332  1.00  0.00     0.119 A 
ATOM     18  C   UNL     1      33.559   6.815   8.313  1.00  0.00     0.049 A 
ATOM     19  N   UNL     1      35.805   7.428   7.784  1.00  0.00    -0.237 NA
ATOM     20  C   UNL     1      34.810   6.497   7.751  1.00  0.00     0.153 A 
BRANCH  20  21
ATOM     21  N   UNL     1      35.080   5.208   7.170  1.00  0.00    -0.220 N 
ATOM     22  C   UNL     1      34.738   4.772   5.936  1.00  0.00     0.156 A 
ATOM     23  N   UNL     1      35.714   4.240   7.822  1.00  0.00    -0.172 NA
ATOM     24  C   UNL     1      35.183   3.475   5.811  1.00  0.00     0.161 A 
ATOM     25  C   UNL     1      35.790   3.167   7.010  1.00  0.00     0.174 A 
ATOM     26  F   UNL     1      35.042   2.664   4.734  1.00  0.00    -0.204 F 
ENDBRANCH  20  21
ENDBRANCH  13  15
ENDBRANCH  11  13
ENDBRANCH   1   9
BRANCH   4  27
ATOM     27  C   UNL     1      26.558  13.229  10.432  1.00  0.00     0.134 A 
ATOM     28  N   UNL     1      25.672  12.199  10.520  1.00  0.00    -0.215 NA
ATOM     29  N   UNL     1      26.233  14.440  10.959  1.00  0.00    -0.238 NA
ATOM     30  C   UNL     1      24.460  12.351  11.113  1.00  0.00     0.135 A 
ATOM     31  C   UNL     1      25.026  14.651  11.547  1.00  0.00     0.043 A 
ATOM     32  C   UNL     1      24.104  13.600  11.634  1.00  0.00     0.070 A 
ATOM     33  C   UNL     1      24.695  15.997  12.100  1.00  0.00     0.067 C 
BRANCH  30  34
ATOM     34  N   UNL     1      23.546  11.245  11.129  1.00  0.00    -0.323 N 
ATOM     35  H   UNL     1      22.555  11.439  11.378  1.00  0.00     0.170 HD
BRANCH  34  36
ATOM     36  C   UNL     1      23.906   9.900  10.783  1.00  0.00     0.153 A 
ATOM     37  N   UNL     1      23.003   8.903  10.682  1.00  0.00    -0.158 NA
ATOM     38  C   UNL     1      25.167   9.449  10.416  1.00  0.00     0.071 A 
ATOM     39  N   UNL     1      23.654   7.823  10.276  1.00  0.00    -0.281 N 
ATOM     40  C   UNL     1      24.957   8.122  10.100  1.00  0.00     0.034 A 
ATOM     41  H   UNL     1      23.204   6.903  10.087  1.00  0.00     0.190 HD
ATOM     42  C   UNL     1      26.000   7.149   9.650  1.00  0.00     0.066 C 
ENDBRANCH  34  36
ENDBRANCH  30  34
ENDBRANCH   4  27
TORSDOF 8
ENDMDL
MODEL 7
REMARK VINA RESULT:    -9.773      3.688     11.964
REMARK INTER + INTRA:         -15.246
REMARK INTER:                 -14.129
REMARK INTRA:                  -1.118
REMARK UNBOUND:                -0.903
REMARK SMILES CO[C@]1(C(=O)N[C@@H](C)c2ccc(-n3cc(F)cn3)nc2)CC[C@H](c2nc(C)cc(Nc3cc(C)[nH]n3)n2)CC1
REMARK SMILES IDX 3 1 21 2 22 3 23 4 38 5 39 6 2 7 1 8 4 9 5 10 6 11 7 13 8 14
REMARK SMILES IDX 9 15 10 16 20 17 11 18 19 19 12 20 13 21 14 22 18 23 15 24
REMARK SMILES IDX 17 25 16 26 24 27 37 28 25 29 29 30 26 31 28 32 27 33 30 34
REMARK SMILES IDX 31 36 36 37 32 38 35 39 33 40 34 42
REMARK H PARENT 6 12 30 35 35 41
REMARK Flexibility Score: inf
ROOT
ATOM      1  C   UNL     1      33.891   9.234   9.033  1.00  0.00     0.146 C 
ATOM      2  C   UNL     1      33.214   7.836   8.883  1.00  0.00     0.046 C 
ATOM      3  C   UNL     1      34.089   6.874   8.070  1.00  0.00     0.015 C 
ATOM      4  C   UNL     1      34.387   7.444   6.670  1.00  0.00     0.058 C 
ATOM      5  C   UNL     1      35.003   8.859   6.764  1.00  0.00     0.015 C 
ATOM      6  C   UNL     1      34.128   9.797   7.611  1.00  0.00     0.046 C 
ENDROOT
BRANCH   1   7
ATOM      7  O   UNL     1      35.168   9.154   9.675  1.00  0.00    -0.368 OA
ATOM      8  C   UNL     1      35.825  10.403   9.795  1.00  0.00     0.196 C 
ENDBRANCH   1   7
BRANCH   1   9
ATOM      9  C   UNL     1      32.984  10.220   9.755  1.00  0.00     0.252 C 
ATOM     10  O   UNL     1      32.877  10.176  11.011  1.00  0.00    -0.272 OA
ATOM     11  N   UNL     1      32.198  11.161   9.001  1.00  0.00    -0.347 N 
ATOM     12  H   UNL     1      32.250  11.133   7.954  1.00  0.00     0.164 HD
BRANCH  11  13
ATOM     13  C   UNL     1      31.337  12.174   9.624  1.00  0.00     0.111 C 
ATOM     14  C   UNL     1      31.352  13.451   8.782  1.00  0.00     0.036 C 
BRANCH  13  15
ATOM     15  C   UNL     1      29.917  11.667   9.793  1.00  0.00    -0.007 A 
ATOM     16  C   UNL     1      29.260  10.928   8.792  1.00  0.00     0.011 A 
ATOM     17  C   UNL     1      29.180  12.035  10.934  1.00  0.00     0.119 A 
ATOM     18  C   UNL     1      27.925  10.550   8.957  1.00  0.00     0.049 A 
ATOM     19  N   UNL     1      27.878  11.669  11.065  1.00  0.00    -0.237 NA
ATOM     20  C   UNL     1      27.229  10.935  10.119  1.00  0.00     0.153 A 
BRANCH  20  21
ATOM     21  N   UNL     1      25.842  10.603  10.322  1.00  0.00    -0.220 N 
ATOM     22  C   UNL     1      25.240   9.412  10.102  1.00  0.00     0.156 A 
ATOM     23  N   UNL     1      24.945  11.482  10.754  1.00  0.00    -0.172 NA
ATOM     24  C   UNL     1      23.906   9.553  10.417  1.00  0.00     0.161 A 
ATOM     25  C   UNL     1      23.750  10.862  10.822  1.00  0.00     0.174 A 
ATOM     26  F   UNL     1      22.944   8.603  10.334  1.00  0.00    -0.204 F 
ENDBRANCH  20  21
ENDBRANCH  13  15
ENDBRANCH  11  13
ENDBRANCH   1   9
BRANCH   4  27
ATOM     27  C   UNL     1      35.295   6.495   5.934  1.00  0.00     0.134 A 
ATOM     28  N   UNL     1      35.133   6.284   4.598  1.00  0.00    -0.215 NA
ATOM     29  N   UNL     1      36.362   5.945   6.574  1.00  0.00    -0.238 NA
ATOM     30  C   UNL     1      36.006   5.526   3.886  1.00  0.00     0.135 A 
ATOM     31  C   UNL     1      37.255   5.163   5.912  1.00  0.00     0.043 A 
ATOM     32  C   UNL     1      37.092   4.933   4.541  1.00  0.00     0.070 A 
ATOM     33  C   UNL     1      38.405   4.562   6.650  1.00  0.00     0.067 C 
BRANCH  30  34
ATOM     34  N   UNL     1      35.754   5.295   2.492  1.00  0.00    -0.323 N 
ATOM     35  H   UNL     1      36.109   5.998   1.813  1.00  0.00     0.170 HD
BRANCH  34  36
ATOM     36  C   UNL     1      35.082   4.136   1.978  1.00  0.00     0.153 A 
ATOM     37  N   UNL     1      33.822   4.172   1.500  1.00  0.00    -0.158 NA
ATOM     38  C   UNL     1      35.629   2.872   1.804  1.00  0.00     0.071 A 
ATOM     39  N   UNL     1      33.541   2.962   1.040  1.00  0.00    -0.281 N 
ATOM     40  C   UNL     1      34.612   2.160   1.202  1.00  0.00     0.034 A 
ATOM     41  H   UNL     1      32.640   2.701   0.587  1.00  0.00     0.190 HD
ATOM     42  C   UNL     1      34.663   0.719   0.802  1.00  0.00     0.066 C 
ENDBRANCH  34  36
ENDBRANCH  30  34
ENDBRANCH   4  27
TORSDOF 8
ENDMDL
MODEL 8
REMARK VINA RESULT:    -9.660      1.266      1.834
REMARK INTER + INTRA:         -15.081
REMARK INTER:                 -14.909
REMARK INTRA:                  -0.171
REMARK UNBOUND:                -0.903
REMARK SMILES CO[C@]1(C(=O)N[C@@H](C)c2ccc(-n3cc(F)cn3)nc2)CC[C@H](c2nc(C)cc(Nc3cc(C)[nH]n3)n2)CC1
REMARK SMILES IDX 3 1 21 2 22 3 23 4 38 5 39 6 2 7 1 8 4 9 5 10 6 11 7 13 8 14
REMARK SMILES IDX 9 15 10 16 20 17 11 18 19 19 12 20 13 21 14 22 18 23 15 24
REMARK SMILES IDX 17 25 16 26 24 27 37 28 25 29 29 30 26 31 28 32 27 33 30 34
REMARK SMILES IDX 31 36 36 37 32 38 35 39 33 40 34 42
REMARK H PARENT 6 12 30 35 35 41
REMARK Flexibility Score: inf
ROOT
ATOM      1  C   UNL     1      30.561  10.262   9.314  1.00  0.00     0.146 C 
ATOM      2  C   UNL     1      30.308  11.525  10.195  1.00  0.00     0.046 C 
ATOM      3  C   UNL     1      28.880  11.540  10.756  1.00  0.00     0.015 C 
ATOM      4  C   UNL     1      27.839  11.497   9.622  1.00  0.00     0.058 C 
ATOM      5  C   UNL     1      28.086  10.295   8.683  1.00  0.00     0.015 C 
ATOM      6  C   UNL     1      29.531  10.280   8.159  1.00  0.00     0.046 C 
ENDROOT
BRANCH   1   7
ATOM      7  O   UNL     1      30.363   9.044  10.040  1.00  0.00    -0.368 OA
ATOM      8  C   UNL     1      30.208   7.906   9.211  1.00  0.00     0.196 C 
ENDBRANCH   1   7
BRANCH   1   9
ATOM      9  C   UNL     1      31.943  10.292   8.676  1.00  0.00     0.252 C 
ATOM     10  O   UNL     1      32.179  11.081   7.720  1.00  0.00    -0.272 OA
ATOM     11  N   UNL     1      32.961   9.376   9.119  1.00  0.00    -0.347 N 
ATOM     12  H   UNL     1      32.720   8.683   9.867  1.00  0.00     0.164 HD
BRANCH  11  13
ATOM     13  C   UNL     1      34.330   9.375   8.588  1.00  0.00     0.111 C 
ATOM     14  C   UNL     1      35.329   9.491   9.740  1.00  0.00     0.036 C 
BRANCH  13  15
ATOM     15  C   UNL     1      34.607   8.128   7.769  1.00  0.00    -0.007 A 
ATOM     16  C   UNL     1      35.635   8.074   6.810  1.00  0.00     0.011 A 
ATOM     17  C   UNL     1      33.746   7.020   7.880  1.00  0.00     0.119 A 
ATOM     18  C   UNL     1      35.803   6.932   6.022  1.00  0.00     0.049 A 
ATOM     19  N   UNL     1      33.921   5.927   7.092  1.00  0.00    -0.237 NA
ATOM     20  C   UNL     1      34.922   5.844   6.172  1.00  0.00     0.153 A 
BRANCH  20  21
ATOM     21  N   UNL     1      35.028   4.659   5.360  1.00  0.00    -0.220 N 
ATOM     22  C   UNL     1      35.251   3.392   5.778  1.00  0.00     0.156 A 
ATOM     23  N   UNL     1      34.934   4.680   4.036  1.00  0.00    -0.172 NA
ATOM     24  C   UNL     1      35.292   2.585   4.663  1.00  0.00     0.161 A 
ATOM     25  C   UNL     1      35.091   3.419   3.585  1.00  0.00     0.174 A 
ATOM     26  F   UNL     1      35.498   1.245   4.633  1.00  0.00    -0.204 F 
ENDBRANCH  20  21
ENDBRANCH  13  15
ENDBRANCH  11  13
ENDBRANCH   1   9
BRANCH   4  27
ATOM     27  C   UNL     1      26.458  11.453  10.222  1.00  0.00     0.134 A 
ATOM     28  N   UNL     1      25.909  12.573  10.770  1.00  0.00    -0.215 NA
ATOM     29  N   UNL     1      25.704  10.327  10.101  1.00  0.00    -0.238 NA
ATOM     30  C   UNL     1      24.626  12.594  11.212  1.00  0.00     0.135 A 
ATOM     31  C   UNL     1      24.419  10.289  10.545  1.00  0.00     0.043 A 
ATOM     32  C   UNL     1      23.849  11.433  11.117  1.00  0.00     0.070 A 
ATOM     33  C   UNL     1      23.625   9.032  10.412  1.00  0.00     0.067 C 
BRANCH  30  34
ATOM     34  N   UNL     1      24.119  13.786  11.829  1.00  0.00    -0.323 N 
ATOM     35  H   UNL     1      23.210  13.722  12.331  1.00  0.00     0.170 HD
BRANCH  34  36
ATOM     36  C   UNL     1      24.806  15.045  11.831  1.00  0.00     0.153 A 
ATOM     37  N   UNL     1      24.459  16.068  12.637  1.00  0.00    -0.158 NA
ATOM     38  C   UNL     1      25.949  15.364  11.109  1.00  0.00     0.071 A 
ATOM     39  N   UNL     1      25.338  17.040  12.440  1.00  0.00    -0.281 N 
ATOM     40  C   UNL     1      26.251  16.643  11.531  1.00  0.00     0.034 A 
ATOM     41  H   UNL     1      25.331  17.949  12.949  1.00  0.00     0.190 HD
ATOM     42  C   UNL     1      27.396  17.480  11.055  1.00  0.00     0.066 C 
ENDBRANCH  34  36
ENDBRANCH  30  34
ENDBRANCH   4  27
TORSDOF 8
ENDMDL
MODEL 9
REMARK VINA RESULT:    -9.607      2.086      4.245
REMARK INTER + INTRA:         -15.003
REMARK INTER:                 -14.436
REMARK INTRA:                  -0.567
REMARK UNBOUND:                -0.903
REMARK SMILES CO[C@]1(C(=O)N[C@@H](C)c2ccc(-n3cc(F)cn3)nc2)CC[C@H](c2nc(C)cc(Nc3cc(C)[nH]n3)n2)CC1
REMARK SMILES IDX 3 1 21 2 22 3 23 4 38 5 39 6 2 7 1 8 4 9 5 10 6 11 7 13 8 14
REMARK SMILES IDX 9 15 10 16 20 17 11 18 19 19 12 20 13 21 14 22 18 23 15 24
REMARK SMILES IDX 17 25 16 26 24 27 37 28 25 29 29 30 26 31 28 32 27 33 30 34
REMARK SMILES IDX 31 36 36 37 32 38 35 39 33 40 34 42
REMARK H PARENT 6 12 30 35 35 41
REMARK Flexibility Score: inf
ROOT
ATOM      1  C   UNL     1      30.947  14.020  11.067  1.00  0.00     0.146 C 
ATOM      2  C   UNL     1      30.468  15.286  10.292  1.00  0.00     0.046 C 
ATOM      3  C   UNL     1      29.036  15.674  10.682  1.00  0.00     0.015 C 
ATOM      4  C   UNL     1      28.056  14.517  10.415  1.00  0.00     0.058 C 
ATOM      5  C   UNL     1      28.522  13.218  11.111  1.00  0.00     0.015 C 
ATOM      6  C   UNL     1      29.970  12.867  10.733  1.00  0.00     0.046 C 
ENDROOT
BRANCH   1   7
ATOM      7  O   UNL     1      30.915  14.206  12.486  1.00  0.00    -0.368 OA
ATOM      8  C   UNL     1      31.518  15.412  12.916  1.00  0.00     0.196 C 
ENDBRANCH   1   7
BRANCH   1   9
ATOM      9  C   UNL     1      32.330  13.575  10.611  1.00  0.00     0.252 C 
ATOM     10  O   UNL     1      33.134  14.415  10.124  1.00  0.00    -0.272 OA
ATOM     11  N   UNL     1      32.696  12.184  10.675  1.00  0.00    -0.347 N 
ATOM     12  H   UNL     1      31.986  11.494  11.018  1.00  0.00     0.164 HD
BRANCH  11  13
ATOM     13  C   UNL     1      34.024  11.683  10.299  1.00  0.00     0.111 C 
ATOM     14  C   UNL     1      34.923  11.630  11.535  1.00  0.00     0.036 C 
BRANCH  13  15
ATOM     15  C   UNL     1      33.938  10.316   9.647  1.00  0.00    -0.007 A 
ATOM     16  C   UNL     1      32.744   9.570   9.625  1.00  0.00     0.011 A 
ATOM     17  C   UNL     1      35.105   9.712   9.144  1.00  0.00     0.119 A 
ATOM     18  C   UNL     1      32.729   8.282   9.084  1.00  0.00     0.049 A 
ATOM     19  N   UNL     1      35.068   8.451   8.637  1.00  0.00    -0.237 NA
ATOM     20  C   UNL     1      33.920   7.719   8.586  1.00  0.00     0.153 A 
BRANCH  20  21
ATOM     21  N   UNL     1      33.968   6.383   8.052  1.00  0.00    -0.220 N 
ATOM     22  C   UNL     1      34.572   5.972   6.913  1.00  0.00     0.156 A 
ATOM     23  N   UNL     1      33.376   5.349   8.638  1.00  0.00    -0.172 NA
ATOM     24  C   UNL     1      34.350   4.619   6.787  1.00  0.00     0.161 A 
ATOM     25  C   UNL     1      33.597   4.255   7.883  1.00  0.00     0.174 A 
ATOM     26  F   UNL     1      34.777   3.812   5.784  1.00  0.00    -0.204 F 
ENDBRANCH  20  21
ENDBRANCH  13  15
ENDBRANCH  11  13
ENDBRANCH   1   9
BRANCH   4  27
ATOM     27  C   UNL     1      26.678  14.922  10.867  1.00  0.00     0.134 A 
ATOM     28  N   UNL     1      25.737  13.976  11.142  1.00  0.00    -0.215 NA
ATOM     29  N   UNL     1      26.410  16.230  11.129  1.00  0.00    -0.238 NA
ATOM     30  C   UNL     1      24.527  14.305  11.662  1.00  0.00     0.135 A 
ATOM     31  C   UNL     1      25.207  16.615  11.632  1.00  0.00     0.043 A 
ATOM     32  C   UNL     1      24.231  15.651  11.909  1.00  0.00     0.070 A 
ATOM     33  C   UNL     1      24.940  18.061  11.891  1.00  0.00     0.067 C 
BRANCH  30  34
ATOM     34  N   UNL     1      23.556  13.272  11.880  1.00  0.00    -0.323 N 
ATOM     35  H   UNL     1      22.655  13.540  12.325  1.00  0.00     0.170 HD
BRANCH  34  36
ATOM     36  C   UNL     1      23.735  11.904  11.486  1.00  0.00     0.153 A 
ATOM     37  N   UNL     1      22.782  10.964  11.646  1.00  0.00    -0.158 NA
ATOM     38  C   UNL     1      24.830  11.373  10.816  1.00  0.00     0.071 A 
ATOM     39  N   UNL     1      23.241   9.843  11.112  1.00  0.00    -0.281 N 
ATOM     40  C   UNL     1      24.468  10.059  10.598  1.00  0.00     0.034 A 
ATOM     41  H   UNL     1      22.705   8.951  11.069  1.00  0.00     0.190 HD
ATOM     42  C   UNL     1      25.300   9.019   9.916  1.00  0.00     0.066 C 
ENDBRANCH  34  36
ENDBRANCH  30  34
ENDBRANCH   4  27
TORSDOF 8
ENDMDL
MODEL 10
REMARK VINA RESULT:    -9.469      4.166     12.388
REMARK INTER + INTRA:         -14.801
REMARK INTER:                 -13.658
REMARK INTRA:                  -1.143
REMARK UNBOUND:                -0.903
REMARK SMILES CO[C@]1(C(=O)N[C@@H](C)c2ccc(-n3cc(F)cn3)nc2)CC[C@H](c2nc(C)cc(Nc3cc(C)[nH]n3)n2)CC1
REMARK SMILES IDX 3 1 21 2 22 3 23 4 38 5 39 6 2 7 1 8 4 9 5 10 6 11 7 13 8 14
REMARK SMILES IDX 9 15 10 16 20 17 11 18 19 19 12 20 13 21 14 22 18 23 15 24
REMARK SMILES IDX 17 25 16 26 24 27 37 28 25 29 29 30 26 31 28 32 27 33 30 34
REMARK SMILES IDX 31 36 36 37 32 38 35 39 33 40 34 42
REMARK H PARENT 6 12 30 35 35 41
REMARK Flexibility Score: inf
ROOT
ATOM      1  C   UNL     1      34.583   8.184   7.592  1.00  0.00     0.146 C 
ATOM      2  C   UNL     1      33.897   6.885   7.068  1.00  0.00     0.046 C 
ATOM      3  C   UNL     1      34.737   6.209   5.976  1.00  0.00     0.015 C 
ATOM      4  C   UNL     1      34.982   7.164   4.793  1.00  0.00     0.058 C 
ATOM      5  C   UNL     1      35.604   8.496   5.272  1.00  0.00     0.015 C 
ATOM      6  C   UNL     1      34.765   9.139   6.387  1.00  0.00     0.046 C 
ENDROOT
BRANCH   1   7
ATOM      7  O   UNL     1      35.884   7.932   8.134  1.00  0.00    -0.368 OA
ATOM      8  C   UNL     1      36.465   9.057   8.768  1.00  0.00     0.196 C 
ENDBRANCH   1   7
BRANCH   1   9
ATOM      9  C   UNL     1      33.707   8.910   8.604  1.00  0.00     0.252 C 
ATOM     10  O   UNL     1      33.580   8.451   9.772  1.00  0.00    -0.272 OA
ATOM     11  N   UNL     1      32.972  10.083   8.210  1.00  0.00    -0.347 N 
ATOM     12  H   UNL     1      33.039  10.406   7.216  1.00  0.00     0.164 HD
BRANCH  11  13
ATOM     13  C   UNL     1      32.145  10.864   9.138  1.00  0.00     0.111 C 
ATOM     14  C   UNL     1      32.063  12.314   8.659  1.00  0.00     0.036 C 
BRANCH  13  15
ATOM     15  C   UNL     1      30.755  10.272   9.276  1.00  0.00    -0.007 A 
ATOM     16  C   UNL     1      29.991   9.885   8.159  1.00  0.00     0.011 A 
ATOM     17  C   UNL     1      30.151  10.207  10.545  1.00  0.00     0.119 A 
ATOM     18  C   UNL     1      28.685   9.419   8.327  1.00  0.00     0.049 A 
ATOM     19  N   UNL     1      28.873   9.764  10.682  1.00  0.00    -0.237 NA
ATOM     20  C   UNL     1      28.123   9.364   9.618  1.00  0.00     0.153 A 
BRANCH  20  21
ATOM     21  N   UNL     1      26.770   8.927   9.843  1.00  0.00    -0.220 N 
ATOM     22  C   UNL     1      25.691   9.695  10.117  1.00  0.00     0.156 A 
ATOM     23  N   UNL     1      26.411   7.648   9.824  1.00  0.00    -0.172 NA
ATOM     24  C   UNL     1      24.608   8.857  10.271  1.00  0.00     0.161 A 
ATOM     25  C   UNL     1      25.090   7.579  10.083  1.00  0.00     0.174 A 
ATOM     26  F   UNL     1      23.334   9.216  10.560  1.00  0.00    -0.204 F 
ENDBRANCH  20  21
ENDBRANCH  13  15
ENDBRANCH  11  13
ENDBRANCH   1   9
BRANCH   4  27
ATOM     27  C   UNL     1      35.858   6.479   3.778  1.00  0.00     0.134 A 
ATOM     28  N   UNL     1      36.099   5.142   3.868  1.00  0.00    -0.215 NA
ATOM     29  N   UNL     1      36.304   7.169   2.694  1.00  0.00    -0.238 NA
ATOM     30  C   UNL     1      36.788   4.476   2.905  1.00  0.00     0.135 A 
ATOM     31  C   UNL     1      37.013   6.555   1.711  1.00  0.00     0.043 A 
ATOM     32  C   UNL     1      37.275   5.182   1.799  1.00  0.00     0.070 A 
ATOM     33  C   UNL     1      37.502   7.346   0.543  1.00  0.00     0.067 C 
BRANCH  30  34
ATOM     34  N   UNL     1      37.058   3.078   3.080  1.00  0.00    -0.323 N 
ATOM     35  H   UNL     1      37.948   2.812   3.549  1.00  0.00     0.170 HD
BRANCH  34  36
ATOM     36  C   UNL     1      36.161   2.030   2.686  1.00  0.00     0.153 A 
ATOM     37  N   UNL     1      35.336   1.408   3.552  1.00  0.00    -0.158 NA
ATOM     38  C   UNL     1      35.937   1.576   1.393  1.00  0.00     0.071 A 
ATOM     39  N   UNL     1      34.600   0.557   2.853  1.00  0.00    -0.281 N 
ATOM     40  C   UNL     1      34.933   0.641   1.549  1.00  0.00     0.034 A 
ATOM     41  H   UNL     1      33.855  -0.046   3.259  1.00  0.00     0.190 HD
ATOM     42  C   UNL     1      34.313  -0.174   0.458  1.00  0.00     0.066 C 
ENDBRANCH  34  36
ENDBRANCH  30  34
ENDBRANCH   4  27
TORSDOF 8
ENDMDL
MODEL 11
REMARK VINA RESULT:    -9.199      4.159     12.658
REMARK INTER + INTRA:         -14.404
REMARK INTER:                 -13.348
REMARK INTRA:                  -1.057
REMARK UNBOUND:                -0.903
REMARK SMILES CO[C@]1(C(=O)N[C@@H](C)c2ccc(-n3cc(F)cn3)nc2)CC[C@H](c2nc(C)cc(Nc3cc(C)[nH]n3)n2)CC1
REMARK SMILES IDX 3 1 21 2 22 3 23 4 38 5 39 6 2 7 1 8 4 9 5 10 6 11 7 13 8 14
REMARK SMILES IDX 9 15 10 16 20 17 11 18 19 19 12 20 13 21 14 22 18 23 15 24
REMARK SMILES IDX 17 25 16 26 24 27 37 28 25 29 29 30 26 31 28 32 27 33 30 34
REMARK SMILES IDX 31 36 36 37 32 38 35 39 33 40 34 42
REMARK H PARENT 6 12 30 35 35 41
REMARK Flexibility Score: inf
ROOT
ATOM      1  C   UNL     1      34.405   7.917   7.953  1.00  0.00     0.146 C 
ATOM      2  C   UNL     1      33.568   6.600   7.972  1.00  0.00     0.046 C 
ATOM      3  C   UNL     1      34.266   5.481   7.189  1.00  0.00     0.015 C 
ATOM      4  C   UNL     1      34.518   5.899   5.729  1.00  0.00     0.058 C 
ATOM      5  C   UNL     1      35.291   7.236   5.657  1.00  0.00     0.015 C 
ATOM      6  C   UNL     1      34.593   8.333   6.475  1.00  0.00     0.046 C 
ENDROOT
BRANCH   1   7
ATOM      7  O   UNL     1      35.710   7.739   8.513  1.00  0.00    -0.368 OA
ATOM      8  C   UNL     1      36.534   8.886   8.412  1.00  0.00     0.196 C 
ENDBRANCH   1   7
BRANCH   1   9
ATOM      9  C   UNL     1      33.670   9.057   8.645  1.00  0.00     0.252 C 
ATOM     10  O   UNL     1      33.710   9.162   9.901  1.00  0.00    -0.272 OA
ATOM     11  N   UNL     1      32.876   9.976   7.873  1.00  0.00    -0.347 N 
ATOM     12  H   UNL     1      32.801   9.826   6.838  1.00  0.00     0.164 HD
BRANCH  11  13
ATOM     13  C   UNL     1      32.177  11.126   8.459  1.00  0.00     0.111 C 
ATOM     14  C   UNL     1      32.196  12.296   7.474  1.00  0.00     0.036 C 
BRANCH  13  15
ATOM     15  C   UNL     1      30.751  10.775   8.839  1.00  0.00    -0.007 A 
ATOM     16  C   UNL     1      30.264  10.933  10.150  1.00  0.00     0.011 A 
ATOM     17  C   UNL     1      29.910  10.167   7.889  1.00  0.00     0.119 A 
ATOM     18  C   UNL     1      28.969  10.522  10.474  1.00  0.00     0.049 A 
ATOM     19  N   UNL     1      28.659   9.761   8.232  1.00  0.00    -0.237 NA
ATOM     20  C   UNL     1      28.159   9.923   9.489  1.00  0.00     0.153 A 
BRANCH  20  21
ATOM     21  N   UNL     1      26.831   9.449   9.779  1.00  0.00    -0.220 N 
ATOM     22  C   UNL     1      25.754  10.184  10.139  1.00  0.00     0.156 A 
ATOM     23  N   UNL     1      26.498   8.163   9.742  1.00  0.00    -0.172 NA
ATOM     24  C   UNL     1      24.700   9.318  10.330  1.00  0.00     0.161 A 
ATOM     25  C   UNL     1      25.197   8.057  10.075  1.00  0.00     0.174 A 
ATOM     26  F   UNL     1      23.438   9.639  10.703  1.00  0.00    -0.204 F 
ENDBRANCH  20  21
ENDBRANCH  13  15
ENDBRANCH  11  13
ENDBRANCH   1   9
BRANCH   4  27
ATOM     27  C   UNL     1      35.256   4.795   5.019  1.00  0.00     0.134 A 
ATOM     28  N   UNL     1      34.710   4.194   3.925  1.00  0.00    -0.215 NA
ATOM     29  N   UNL     1      36.527   4.485   5.390  1.00  0.00    -0.238 NA
ATOM     30  C   UNL     1      35.400   3.279   3.197  1.00  0.00     0.135 A 
ATOM     31  C   UNL     1      37.255   3.562   4.707  1.00  0.00     0.043 A 
ATOM     32  C   UNL     1      36.699   2.932   3.587  1.00  0.00     0.070 A 
ATOM     33  C   UNL     1      38.642   3.233   5.151  1.00  0.00     0.067 C 
BRANCH  30  34
ATOM     34  N   UNL     1      34.755   2.639   2.087  1.00  0.00    -0.323 N 
ATOM     35  H   UNL     1      33.899   3.087   1.701  1.00  0.00     0.170 HD
BRANCH  34  36
ATOM     36  C   UNL     1      35.239   1.447   1.454  1.00  0.00     0.153 A 
ATOM     37  N   UNL     1      34.829   0.211   1.807  1.00  0.00    -0.158 NA
ATOM     38  C   UNL     1      36.091   1.379   0.360  1.00  0.00     0.071 A 
ATOM     39  N   UNL     1      35.407  -0.646   0.979  1.00  0.00    -0.281 N 
ATOM     40  C   UNL     1      36.167   0.027   0.093  1.00  0.00     0.034 A 
ATOM     41  H   UNL     1      35.254  -1.676   1.001  1.00  0.00     0.190 HD
ATOM     42  C   UNL     1      36.974  -0.612  -0.994  1.00  0.00     0.066 C 
ENDBRANCH  34  36
ENDBRANCH  30  34
ENDBRANCH   4  27
TORSDOF 8
ENDMDL
MODEL 12
REMARK VINA RESULT:    -9.094      1.788      3.993
REMARK INTER + INTRA:         -14.250
REMARK INTER:                 -14.382
REMARK INTRA:                   0.133
REMARK UNBOUND:                -0.903
REMARK SMILES CO[C@]1(C(=O)N[C@@H](C)c2ccc(-n3cc(F)cn3)nc2)CC[C@H](c2nc(C)cc(Nc3cc(C)[nH]n3)n2)CC1
REMARK SMILES IDX 3 1 21 2 22 3 23 4 38 5 39 6 2 7 1 8 4 9 5 10 6 11 7 13 8 14
REMARK SMILES IDX 9 15 10 16 20 17 11 18 19 19 12 20 13 21 14 22 18 23 15 24
REMARK SMILES IDX 17 25 16 26 24 27 37 28 25 29 29 30 26 31 28 32 27 33 30 34
REMARK SMILES IDX 31 36 36 37 32 38 35 39 33 40 34 42
REMARK H PARENT 6 12 30 35 35 41
REMARK Flexibility Score: inf
ROOT
ATOM      1  C   UNL     1      31.145  10.422   9.305  1.00  0.00     0.146 C 
ATOM      2  C   UNL     1      30.567  10.208  10.738  1.00  0.00     0.046 C 
ATOM      3  C   UNL     1      29.176  10.840  10.881  1.00  0.00     0.015 C 
ATOM      4  C   UNL     1      29.218  12.349  10.572  1.00  0.00     0.058 C 
ATOM      5  C   UNL     1      29.844  12.616   9.185  1.00  0.00     0.015 C 
ATOM      6  C   UNL     1      31.220  11.946   9.050  1.00  0.00     0.046 C 
ENDROOT
BRANCH   1   7
ATOM      7  O   UNL     1      30.303   9.864   8.290  1.00  0.00    -0.368 OA
ATOM      8  C   UNL     1      29.893   8.535   8.557  1.00  0.00     0.196 C 
ENDBRANCH   1   7
BRANCH   1   9
ATOM      9  C   UNL     1      32.563   9.882   9.188  1.00  0.00     0.252 C 
ATOM     10  O   UNL     1      33.052   9.185  10.119  1.00  0.00    -0.272 OA
ATOM     11  N   UNL     1      33.371  10.220   8.045  1.00  0.00    -0.347 N 
ATOM     12  H   UNL     1      32.968  10.858   7.318  1.00  0.00     0.164 HD
BRANCH  11  13
ATOM     13  C   UNL     1      34.729   9.702   7.836  1.00  0.00     0.111 C 
ATOM     14  C   UNL     1      35.443   9.574   9.182  1.00  0.00     0.036 C 
BRANCH  13  15
ATOM     15  C   UNL     1      34.709   8.367   7.117  1.00  0.00    -0.007 A 
ATOM     16  C   UNL     1      34.539   7.149   7.801  1.00  0.00     0.011 A 
ATOM     17  C   UNL     1      34.981   8.318   5.737  1.00  0.00     0.119 A 
ATOM     18  C   UNL     1      34.607   5.937   7.110  1.00  0.00     0.049 A 
ATOM     19  N   UNL     1      35.058   7.125   5.089  1.00  0.00    -0.237 NA
ATOM     20  C   UNL     1      34.875   5.936   5.727  1.00  0.00     0.153 A 
BRANCH  20  21
ATOM     21  N   UNL     1      34.993   4.714   4.974  1.00  0.00    -0.220 N 
ATOM     22  C   UNL     1      35.175   3.464   5.456  1.00  0.00     0.156 A 
ATOM     23  N   UNL     1      34.951   4.677   3.647  1.00  0.00    -0.172 NA
ATOM     24  C   UNL     1      35.246   2.606   4.380  1.00  0.00     0.161 A 
ATOM     25  C   UNL     1      35.103   3.395   3.259  1.00  0.00     0.174 A 
ATOM     26  F   UNL     1      35.429   1.264   4.418  1.00  0.00    -0.204 F 
ENDBRANCH  20  21
ENDBRANCH  13  15
ENDBRANCH  11  13
ENDBRANCH   1   9
BRANCH   4  27
ATOM     27  C   UNL     1      27.825  12.911  10.668  1.00  0.00     0.134 A 
ATOM     28  N   UNL     1      26.752  12.080  10.777  1.00  0.00    -0.215 NA
ATOM     29  N   UNL     1      27.645  14.255  10.776  1.00  0.00    -0.238 NA
ATOM     30  C   UNL     1      25.498  12.558  10.981  1.00  0.00     0.135 A 
ATOM     31  C   UNL     1      26.408  14.787  10.963  1.00  0.00     0.043 A 
ATOM     32  C   UNL     1      25.298  13.941  11.067  1.00  0.00     0.070 A 
ATOM     33  C   UNL     1      26.244  16.268  11.061  1.00  0.00     0.067 C 
BRANCH  30  34
ATOM     34  N   UNL     1      24.399  11.637  11.035  1.00  0.00    -0.323 N 
ATOM     35  H   UNL     1      23.472  12.006  11.327  1.00  0.00     0.170 HD
BRANCH  34  36
ATOM     36  C   UNL     1      24.492  10.252  10.671  1.00  0.00     0.153 A 
ATOM     37  N   UNL     1      23.412   9.459  10.524  1.00  0.00    -0.158 NA
ATOM     38  C   UNL     1      25.648   9.563  10.330  1.00  0.00     0.071 A 
ATOM     39  N   UNL     1      23.845   8.276  10.114  1.00  0.00    -0.281 N 
ATOM     40  C   UNL     1      25.186   8.310   9.981  1.00  0.00     0.034 A 
ATOM     41  H   UNL     1      23.225   7.469   9.894  1.00  0.00     0.190 HD
ATOM     42  C   UNL     1      26.026   7.153   9.539  1.00  0.00     0.066 C 
ENDBRANCH  34  36
ENDBRANCH  30  34
ENDBRANCH   4  27
TORSDOF 8
ENDMDL
MODEL 13
REMARK VINA RESULT:    -9.092      3.241      6.349
REMARK INTER + INTRA:         -14.247
REMARK INTER:                 -13.187
REMARK INTRA:                  -1.061
REMARK UNBOUND:                -0.903
REMARK SMILES CO[C@]1(C(=O)N[C@@H](C)c2ccc(-n3cc(F)cn3)nc2)CC[C@H](c2nc(C)cc(Nc3cc(C)[nH]n3)n2)CC1
REMARK SMILES IDX 3 1 21 2 22 3 23 4 38 5 39 6 2 7 1 8 4 9 5 10 6 11 7 13 8 14
REMARK SMILES IDX 9 15 10 16 20 17 11 18 19 19 12 20 13 21 14 22 18 23 15 24
REMARK SMILES IDX 17 25 16 26 24 27 37 28 25 29 29 30 26 31 28 32 27 33 30 34
REMARK SMILES IDX 31 36 36 37 32 38 35 39 33 40 34 42
REMARK H PARENT 6 12 30 35 35 41
REMARK Flexibility Score: inf
ROOT
ATOM      1  C   UNL     1      34.316   7.210   7.509  1.00  0.00     0.146 C 
ATOM      2  C   UNL     1      33.077   6.660   8.281  1.00  0.00     0.046 C 
ATOM      3  C   UNL     1      32.018   7.750   8.491  1.00  0.00     0.015 C 
ATOM      4  C   UNL     1      32.602   8.949   9.261  1.00  0.00     0.058 C 
ATOM      5  C   UNL     1      33.873   9.492   8.569  1.00  0.00     0.015 C 
ATOM      6  C   UNL     1      34.906   8.378   8.337  1.00  0.00     0.046 C 
ENDROOT
BRANCH   1   7
ATOM      7  O   UNL     1      33.968   7.736   6.224  1.00  0.00    -0.368 OA
ATOM      8  C   UNL     1      35.080   8.189   5.473  1.00  0.00     0.196 C 
ENDBRANCH   1   7
BRANCH   1   9
ATOM      9  C   UNL     1      35.410   6.159   7.385  1.00  0.00     0.252 C 
ATOM     10  O   UNL     1      36.555   6.379   7.868  1.00  0.00    -0.272 OA
ATOM     11  N   UNL     1      35.159   4.941   6.660  1.00  0.00    -0.347 N 
ATOM     12  H   UNL     1      34.223   4.811   6.208  1.00  0.00     0.164 HD
BRANCH  11  13
ATOM     13  C   UNL     1      36.145   3.860   6.535  1.00  0.00     0.111 C 
ATOM     14  C   UNL     1      35.967   2.866   7.684  1.00  0.00     0.036 C 
BRANCH  13  15
ATOM     15  C   UNL     1      36.027   3.152   5.198  1.00  0.00    -0.007 A 
ATOM     16  C   UNL     1      35.176   3.616   4.177  1.00  0.00     0.011 A 
ATOM     17  C   UNL     1      36.695   1.930   4.999  1.00  0.00     0.119 A 
ATOM     18  C   UNL     1      35.038   2.889   2.992  1.00  0.00     0.049 A 
ATOM     19  N   UNL     1      36.532   1.233   3.843  1.00  0.00    -0.237 NA
ATOM     20  C   UNL     1      35.731   1.674   2.833  1.00  0.00     0.153 A 
BRANCH  20  21
ATOM     21  N   UNL     1      35.596   0.867   1.648  1.00  0.00    -0.220 N 
ATOM     22  C   UNL     1      36.565   0.525   0.769  1.00  0.00     0.156 A 
ATOM     23  N   UNL     1      34.436   0.356   1.250  1.00  0.00    -0.172 NA
ATOM     24  C   UNL     1      35.985  -0.239  -0.219  1.00  0.00     0.161 A 
ATOM     25  C   UNL     1      34.649  -0.328   0.109  1.00  0.00     0.174 A 
ATOM     26  F   UNL     1      36.600  -0.782  -1.298  1.00  0.00    -0.204 F 
ENDBRANCH  20  21
ENDBRANCH  13  15
ENDBRANCH  11  13
ENDBRANCH   1   9
BRANCH   4  27
ATOM     27  C   UNL     1      31.546  10.015   9.391  1.00  0.00     0.134 A 
ATOM     28  N   UNL     1      30.302   9.818   8.873  1.00  0.00    -0.215 NA
ATOM     29  N   UNL     1      31.792  11.123  10.139  1.00  0.00    -0.238 NA
ATOM     30  C   UNL     1      29.297  10.709   9.074  1.00  0.00     0.135 A 
ATOM     31  C   UNL     1      30.827  12.056  10.356  1.00  0.00     0.043 A 
ATOM     32  C   UNL     1      29.548  11.867   9.820  1.00  0.00     0.070 A 
ATOM     33  C   UNL     1      31.137  13.269  11.169  1.00  0.00     0.067 C 
BRANCH  30  34
ATOM     34  N   UNL     1      28.023  10.475   8.459  1.00  0.00    -0.323 N 
ATOM     35  H   UNL     1      27.997  10.367   7.425  1.00  0.00     0.170 HD
BRANCH  34  36
ATOM     36  C   UNL     1      26.792  10.340   9.184  1.00  0.00     0.153 A 
ATOM     37  N   UNL     1      26.309   9.150   9.593  1.00  0.00    -0.158 NA
ATOM     38  C   UNL     1      25.988  11.373   9.648  1.00  0.00     0.071 A 
ATOM     39  N   UNL     1      25.210   9.390  10.292  1.00  0.00    -0.281 N 
ATOM     40  C   UNL     1      24.995  10.720  10.349  1.00  0.00     0.034 A 
ATOM     41  H   UNL     1      24.636   8.654  10.754  1.00  0.00     0.190 HD
ATOM     42  C   UNL     1      23.843  11.366  11.052  1.00  0.00     0.066 C 
ENDBRANCH  34  36
ENDBRANCH  30  34
ENDBRANCH   4  27
TORSDOF 8
ENDMDL
MODEL 14
REMARK VINA RESULT:    -8.829      3.352     11.497
REMARK INTER + INTRA:         -13.862
REMARK INTER:                 -12.688
REMARK INTRA:                  -1.173
REMARK UNBOUND:                -0.903
REMARK SMILES CO[C@]1(C(=O)N[C@@H](C)c2ccc(-n3cc(F)cn3)nc2)CC[C@H](c2nc(C)cc(Nc3cc(C)[nH]n3)n2)CC1
REMARK SMILES IDX 3 1 21 2 22 3 23 4 38 5 39 6 2 7 1 8 4 9 5 10 6 11 7 13 8 14
REMARK SMILES IDX 9 15 10 16 20 17 11 18 19 19 12 20 13 21 14 22 18 23 15 24
REMARK SMILES IDX 17 25 16 26 24 27 37 28 25 29 29 30 26 31 28 32 27 33 30 34
REMARK SMILES IDX 31 36 36 37 32 38 35 39 33 40 34 42
REMARK H PARENT 6 12 30 35 35 41
REMARK Flexibility Score: inf
ROOT
ATOM      1  C   UNL     1      32.393  13.121   9.912  1.00  0.00     0.146 C 
ATOM      2  C   UNL     1      33.274  12.226  10.838  1.00  0.00     0.046 C 
ATOM      3  C   UNL     1      34.363  11.496  10.041  1.00  0.00     0.015 C 
ATOM      4  C   UNL     1      33.747  10.624   8.931  1.00  0.00     0.058 C 
ATOM      5  C   UNL     1      32.813  11.455   8.023  1.00  0.00     0.015 C 
ATOM      6  C   UNL     1      31.752  12.204   8.844  1.00  0.00     0.046 C 
ENDROOT
BRANCH   1   7
ATOM      7  O   UNL     1      33.163  14.107   9.217  1.00  0.00    -0.368 OA
ATOM      8  C   UNL     1      33.759  15.069  10.069  1.00  0.00     0.196 C 
ENDBRANCH   1   7
BRANCH   1   9
ATOM      9  C   UNL     1      31.252  13.770  10.683  1.00  0.00     0.252 C 
ATOM     10  O   UNL     1      31.303  13.845  11.941  1.00  0.00    -0.272 OA
ATOM     11  N   UNL     1      30.085  14.239   9.983  1.00  0.00    -0.347 N 
ATOM     12  H   UNL     1      30.035  14.102   8.945  1.00  0.00     0.164 HD
BRANCH  11  13
ATOM     13  C   UNL     1      28.965  14.917  10.647  1.00  0.00     0.111 C 
ATOM     14  C   UNL     1      28.640  16.216   9.910  1.00  0.00     0.036 C 
BRANCH  13  15
ATOM     15  C   UNL     1      27.739  14.026  10.717  1.00  0.00    -0.007 A 
ATOM     16  C   UNL     1      26.445  14.545  10.913  1.00  0.00     0.011 A 
ATOM     17  C   UNL     1      27.895  12.628  10.700  1.00  0.00     0.119 A 
ATOM     18  C   UNL     1      25.355  13.683  11.051  1.00  0.00     0.049 A 
ATOM     19  N   UNL     1      26.821  11.809  10.852  1.00  0.00    -0.237 NA
ATOM     20  C   UNL     1      25.557  12.289  11.022  1.00  0.00     0.153 A 
BRANCH  20  21
ATOM     21  N   UNL     1      24.474  11.357  11.196  1.00  0.00    -0.220 N 
ATOM     22  C   UNL     1      24.362  10.116  10.669  1.00  0.00     0.156 A 
ATOM     23  N   UNL     1      23.393  11.632  11.917  1.00  0.00    -0.172 NA
ATOM     24  C   UNL     1      23.159   9.591  11.086  1.00  0.00     0.161 A 
ATOM     25  C   UNL     1      22.572  10.564  11.866  1.00  0.00     0.174 A 
ATOM     26  F   UNL     1      22.652   8.371  10.781  1.00  0.00    -0.204 F 
ENDBRANCH  20  21
ENDBRANCH  13  15
ENDBRANCH  11  13
ENDBRANCH   1   9
BRANCH   4  27
ATOM     27  C   UNL     1      34.854   9.976   8.141  1.00  0.00     0.134 A 
ATOM     28  N   UNL     1      34.988   8.621   8.127  1.00  0.00    -0.215 NA
ATOM     29  N   UNL     1      35.642  10.736   7.334  1.00  0.00    -0.238 NA
ATOM     30  C   UNL     1      35.901   8.004   7.334  1.00  0.00     0.135 A 
ATOM     31  C   UNL     1      36.584  10.170   6.534  1.00  0.00     0.043 A 
ATOM     32  C   UNL     1      36.736   8.779   6.520  1.00  0.00     0.070 A 
ATOM     33  C   UNL     1      37.444  11.036   5.674  1.00  0.00     0.067 C 
BRANCH  30  34
ATOM     34  N   UNL     1      36.034   6.577   7.401  1.00  0.00    -0.323 N 
ATOM     35  H   UNL     1      36.456   6.170   8.259  1.00  0.00     0.170 HD
BRANCH  34  36
ATOM     36  C   UNL     1      35.582   5.678   6.377  1.00  0.00     0.153 A 
ATOM     37  N   UNL     1      34.807   6.072   5.347  1.00  0.00    -0.158 NA
ATOM     38  C   UNL     1      35.936   4.344   6.235  1.00  0.00     0.071 A 
ATOM     39  N   UNL     1      34.641   5.021   4.556  1.00  0.00    -0.281 N 
ATOM     40  C   UNL     1      35.315   3.969   5.060  1.00  0.00     0.034 A 
ATOM     41  H   UNL     1      34.103   5.038   3.665  1.00  0.00     0.190 HD
ATOM     42  C   UNL     1      35.356   2.608   4.439  1.00  0.00     0.066 C 
ENDBRANCH  34  36
ENDBRANCH  30  34
ENDBRANCH   4  27
TORSDOF 8
ENDMDL
MODEL 15
REMARK VINA RESULT:    -8.794      3.383      5.615
REMARK INTER + INTRA:         -13.810
REMARK INTER:                 -12.897
REMARK INTRA:                  -0.913
REMARK UNBOUND:                -0.903
REMARK SMILES CO[C@]1(C(=O)N[C@@H](C)c2ccc(-n3cc(F)cn3)nc2)CC[C@H](c2nc(C)cc(Nc3cc(C)[nH]n3)n2)CC1
REMARK SMILES IDX 3 1 21 2 22 3 23 4 38 5 39 6 2 7 1 8 4 9 5 10 6 11 7 13 8 14
REMARK SMILES IDX 9 15 10 16 20 17 11 18 19 19 12 20 13 21 14 22 18 23 15 24
REMARK SMILES IDX 17 25 16 26 24 27 37 28 25 29 29 30 26 31 28 32 27 33 30 34
REMARK SMILES IDX 31 36 36 37 32 38 35 39 33 40 34 42
REMARK H PARENT 6 12 30 35 35 41
REMARK Flexibility Score: inf
ROOT
ATOM      1  C   UNL     1      34.905   8.604   8.097  1.00  0.00     0.146 C 
ATOM      2  C   UNL     1      33.661   7.806   8.595  1.00  0.00     0.046 C 
ATOM      3  C   UNL     1      32.522   8.746   9.011  1.00  0.00     0.015 C 
ATOM      4  C   UNL     1      32.979   9.715  10.118  1.00  0.00     0.058 C 
ATOM      5  C   UNL     1      34.250  10.485   9.695  1.00  0.00     0.015 C 
ATOM      6  C   UNL     1      35.366   9.527   9.251  1.00  0.00     0.046 C 
ENDROOT
BRANCH   1   7
ATOM      7  O   UNL     1      34.601   9.444   6.978  1.00  0.00    -0.368 OA
ATOM      8  C   UNL     1      35.719  10.152   6.476  1.00  0.00     0.196 C 
ENDBRANCH   1   7
BRANCH   1   9
ATOM      9  C   UNL     1      36.071   7.679   7.776  1.00  0.00     0.252 C 
ATOM     10  O   UNL     1      37.219   7.927   8.238  1.00  0.00    -0.272 OA
ATOM     11  N   UNL     1      35.880   6.557   6.895  1.00  0.00    -0.347 N 
ATOM     12  H   UNL     1      34.934   6.411   6.469  1.00  0.00     0.164 HD
BRANCH  11  13
ATOM     13  C   UNL     1      36.941   5.594   6.575  1.00  0.00     0.111 C 
ATOM     14  C   UNL     1      37.305   4.795   7.827  1.00  0.00     0.036 C 
BRANCH  13  15
ATOM     15  C   UNL     1      36.524   4.661   5.453  1.00  0.00    -0.007 A 
ATOM     16  C   UNL     1      35.512   3.697   5.616  1.00  0.00     0.011 A 
ATOM     17  C   UNL     1      37.239   4.671   4.241  1.00  0.00     0.119 A 
ATOM     18  C   UNL     1      35.215   2.806   4.582  1.00  0.00     0.049 A 
ATOM     19  N   UNL     1      36.942   3.784   3.255  1.00  0.00    -0.237 NA
ATOM     20  C   UNL     1      35.952   2.856   3.383  1.00  0.00     0.153 A 
BRANCH  20  21
ATOM     21  N   UNL     1      35.712   1.938   2.301  1.00  0.00    -0.220 N 
ATOM     22  C   UNL     1      35.162   0.704   2.374  1.00  0.00     0.156 A 
ATOM     23  N   UNL     1      36.037   2.204   1.041  1.00  0.00    -0.172 NA
ATOM     24  C   UNL     1      35.140   0.179   1.101  1.00  0.00     0.161 A 
ATOM     25  C   UNL     1      35.695   1.142   0.286  1.00  0.00     0.174 A 
ATOM     26  F   UNL     1      34.676  -1.039   0.729  1.00  0.00    -0.204 F 
ENDBRANCH  20  21
ENDBRANCH  13  15
ENDBRANCH  11  13
ENDBRANCH   1   9
BRANCH   4  27
ATOM     27  C   UNL     1      31.849  10.654  10.449  1.00  0.00     0.134 A 
ATOM     28  N   UNL     1      32.100  11.964  10.722  1.00  0.00    -0.215 NA
ATOM     29  N   UNL     1      30.562  10.225  10.350  1.00  0.00    -0.238 NA
ATOM     30  C   UNL     1      31.095  12.858  10.909  1.00  0.00     0.135 A 
ATOM     31  C   UNL     1      29.519  11.074  10.547  1.00  0.00     0.043 A 
ATOM     32  C   UNL     1      29.767  12.421  10.836  1.00  0.00     0.070 A 
ATOM     33  C   UNL     1      28.119  10.565  10.446  1.00  0.00     0.067 C 
BRANCH  30  34
ATOM     34  N   UNL     1      31.420  14.214  11.246  1.00  0.00    -0.323 N 
ATOM     35  H   UNL     1      32.214  14.661  10.744  1.00  0.00     0.170 HD
BRANCH  34  36
ATOM     36  C   UNL     1      30.694  15.002  12.200  1.00  0.00     0.153 A 
ATOM     37  N   UNL     1      30.833  14.851  13.533  1.00  0.00    -0.158 NA
ATOM     38  C   UNL     1      29.845  16.065  11.919  1.00  0.00     0.071 A 
ATOM     39  N   UNL     1      30.085  15.778  14.113  1.00  0.00    -0.281 N 
ATOM     40  C   UNL     1      29.484  16.528  13.168  1.00  0.00     0.034 A 
ATOM     41  H   UNL     1      30.017  15.916  15.143  1.00  0.00     0.190 HD
ATOM     42  C   UNL     1      28.559  17.670  13.450  1.00  0.00     0.066 C 
ENDBRANCH  34  36
ENDBRANCH  30  34
ENDBRANCH   4  27
TORSDOF 8
ENDMDL
