MODEL 1
REMARK VINA RESULT:   -10.002      0.000      0.000
REMARK INTER + INTRA:         -15.546
REMARK INTER:                 -14.680
REMARK INTRA:                  -0.866
REMARK UNBOUND:                -0.866
REMARK SMILES CO[C@]1(C(=O)N[C@@H](C)c2ccc(-n3cc(F)cn3)nc2)CC[C@H](c2nc(C)cc(Nc3cc(C)[nH]n3)n2)CC1
REMARK SMILES IDX 3 1 21 2 22 3 23 4 38 5 39 6 2 7 1 8 4 9 5 10 6 11 7 13 8 14
REMARK SMILES IDX 9 15 10 16 20 17 11 18 19 19 12 20 13 21 14 22 18 23 15 24
REMARK SMILES IDX 17 25 16 26 24 27 37 28 25 29 29 30 26 31 28 32 27 33 30 34
REMARK SMILES IDX 31 36 36 37 32 38 35 39 33 40 34 42
REMARK H PARENT 6 12 30 35 35 41
REMARK Flexibility Score: inf
ROOT
ATOM      1  C   UNL     1     -75.634 -16.820  87.546  1.00  0.00     0.146 C 
ATOM      2  C   UNL     1     -75.507 -15.314  87.932  1.00  0.00     0.046 C 
ATOM      3  C   UNL     1     -74.748 -15.136  89.253  1.00  0.00     0.015 C 
ATOM      4  C   UNL     1     -75.444 -15.894  90.399  1.00  0.00     0.058 C 
ATOM      5  C   UNL     1     -75.650 -17.383  90.037  1.00  0.00     0.015 C 
ATOM      6  C   UNL     1     -76.382 -17.539  88.695  1.00  0.00     0.046 C 
ENDROOT
BRANCH   1   7
ATOM      7  O   UNL     1     -74.359 -17.455  87.408  1.00  0.00    -0.368 OA
ATOM      8  C   UNL     1     -73.527 -16.857  86.430  1.00  0.00     0.196 C 
ENDBRANCH   1   7
BRANCH   1   9
ATOM      9  C   UNL     1     -76.470 -17.007  86.288  1.00  0.00     0.252 C 
ATOM     10  O   UNL     1     -76.474 -16.116  85.395  1.00  0.00    -0.272 OA
ATOM     11  N   UNL     1     -77.306 -18.170  86.145  1.00  0.00    -0.347 N 
ATOM     12  H   UNL     1     -77.340 -18.863  86.930  1.00  0.00     0.164 HD
BRANCH  11  13
ATOM     13  C   UNL     1     -78.105 -18.445  84.943  1.00  0.00     0.111 C 
ATOM     14  C   UNL     1     -77.253 -19.200  83.922  1.00  0.00     0.036 C 
BRANCH  13  15
ATOM     15  C   UNL     1     -79.356 -19.235  85.277  1.00  0.00    -0.007 A 
ATOM     16  C   UNL     1     -80.612 -18.916  84.728  1.00  0.00     0.011 A 
ATOM     17  C   UNL     1     -79.299 -20.248  86.252  1.00  0.00     0.119 A 
ATOM     18  C   UNL     1     -81.753 -19.618  85.124  1.00  0.00     0.049 A 
ATOM     19  N   UNL     1     -80.425 -20.907  86.632  1.00  0.00    -0.237 NA
ATOM     20  C   UNL     1     -81.647 -20.630  86.099  1.00  0.00     0.153 A 
BRANCH  20  21
ATOM     21  N   UNL     1     -82.796 -21.359  86.569  1.00  0.00    -0.220 N 
ATOM     22  C   UNL     1     -83.665 -20.991  87.538  1.00  0.00     0.156 A 
ATOM     23  N   UNL     1     -83.141 -22.550  86.093  1.00  0.00    -0.172 NA
ATOM     24  C   UNL     1     -84.598 -21.995  87.668  1.00  0.00     0.161 A 
ATOM     25  C   UNL     1     -84.244 -22.961  86.750  1.00  0.00     0.174 A 
ATOM     26  F   UNL     1     -85.643 -22.032  88.530  1.00  0.00    -0.204 F 
ENDBRANCH  20  21
ENDBRANCH  13  15
ENDBRANCH  11  13
ENDBRANCH   1   9
BRANCH   4  27
ATOM     27  C   UNL     1     -74.633 -15.739  91.658  1.00  0.00     0.134 A 
ATOM     28  N   UNL     1     -73.737 -14.721  91.779  1.00  0.00    -0.215 NA
ATOM     29  N   UNL     1     -74.886 -16.539  92.729  1.00  0.00    -0.238 NA
ATOM     30  C   UNL     1     -73.077 -14.487  92.943  1.00  0.00     0.135 A 
ATOM     31  C   UNL     1     -74.240 -16.360  93.911  1.00  0.00     0.043 A 
ATOM     32  C   UNL     1     -73.311 -15.321  94.042  1.00  0.00     0.070 A 
ATOM     33  C   UNL     1     -74.531 -17.267  95.061  1.00  0.00     0.067 C 
BRANCH  30  34
ATOM     34  N   UNL     1     -72.106 -13.433  92.995  1.00  0.00    -0.323 N 
ATOM     35  H   UNL     1     -71.328 -13.456  92.305  1.00  0.00     0.170 HD
BRANCH  34  36
ATOM     36  C   UNL     1     -72.165 -12.329  93.910  1.00  0.00     0.153 A 
ATOM     37  N   UNL     1     -72.325 -11.052  93.508  1.00  0.00    -0.158 NA
ATOM     38  C   UNL     1     -72.167 -12.404  95.296  1.00  0.00     0.071 A 
ATOM     39  N   UNL     1     -72.413 -10.305  94.599  1.00  0.00    -0.281 N 
ATOM     40  C   UNL     1     -72.329 -11.091  95.690  1.00  0.00     0.034 A 
ATOM     41  H   UNL     1     -72.566  -9.274  94.593  1.00  0.00     0.190 HD
ATOM     42  C   UNL     1     -72.387 -10.596  97.101  1.00  0.00     0.066 C 
ENDBRANCH  34  36
ENDBRANCH  30  34
ENDBRANCH   4  27
TORSDOF 8
ENDMDL
MODEL 2
REMARK VINA RESULT:    -9.872      2.444      3.148
REMARK INTER + INTRA:         -15.354
REMARK INTER:                 -14.161
REMARK INTRA:                  -1.193
REMARK UNBOUND:                -0.866
REMARK SMILES CO[C@]1(C(=O)N[C@@H](C)c2ccc(-n3cc(F)cn3)nc2)CC[C@H](c2nc(C)cc(Nc3cc(C)[nH]n3)n2)CC1
REMARK SMILES IDX 3 1 21 2 22 3 23 4 38 5 39 6 2 7 1 8 4 9 5 10 6 11 7 13 8 14
REMARK SMILES IDX 9 15 10 16 20 17 11 18 19 19 12 20 13 21 14 22 18 23 15 24
REMARK SMILES IDX 17 25 16 26 24 27 37 28 25 29 29 30 26 31 28 32 27 33 30 34
REMARK SMILES IDX 31 36 36 37 32 38 35 39 33 40 34 42
REMARK H PARENT 6 12 30 35 35 41
REMARK Flexibility Score: inf
ROOT
ATOM      1  C   UNL     1     -75.105 -17.062  90.286  1.00  0.00     0.146 C 
ATOM      2  C   UNL     1     -75.451 -15.654  90.861  1.00  0.00     0.046 C 
ATOM      3  C   UNL     1     -74.909 -15.481  92.285  1.00  0.00     0.015 C 
ATOM      4  C   UNL     1     -75.470 -16.563  93.227  1.00  0.00     0.058 C 
ATOM      5  C   UNL     1     -75.207 -17.980  92.667  1.00  0.00     0.015 C 
ATOM      6  C   UNL     1     -75.727 -18.120  91.228  1.00  0.00     0.046 C 
ENDROOT
BRANCH   1   7
ATOM      7  O   UNL     1     -73.694 -17.303  90.250  1.00  0.00    -0.368 OA
ATOM      8  C   UNL     1     -73.028 -16.632  89.197  1.00  0.00     0.196 C 
ENDBRANCH   1   7
BRANCH   1   9
ATOM      9  C   UNL     1     -75.724 -17.273  88.912  1.00  0.00     0.252 C 
ATOM     10  O   UNL     1     -76.078 -16.279  88.220  1.00  0.00    -0.272 OA
ATOM     11  N   UNL     1     -75.967 -18.607  88.428  1.00  0.00    -0.347 N 
ATOM     12  H   UNL     1     -75.729 -19.416  89.050  1.00  0.00     0.164 HD
BRANCH  11  13
ATOM     13  C   UNL     1     -76.517 -18.894  87.097  1.00  0.00     0.111 C 
ATOM     14  C   UNL     1     -75.549 -19.790  86.323  1.00  0.00     0.036 C 
BRANCH  13  15
ATOM     15  C   UNL     1     -77.884 -19.545  87.189  1.00  0.00    -0.007 A 
ATOM     16  C   UNL     1     -78.300 -20.257  88.329  1.00  0.00     0.011 A 
ATOM     17  C   UNL     1     -78.731 -19.542  86.065  1.00  0.00     0.119 A 
ATOM     18  C   UNL     1     -79.535 -20.909  88.341  1.00  0.00     0.049 A 
ATOM     19  N   UNL     1     -79.922 -20.196  86.095  1.00  0.00    -0.237 NA
ATOM     20  C   UNL     1     -80.354 -20.874  87.195  1.00  0.00     0.153 A 
BRANCH  20  21
ATOM     21  N   UNL     1     -81.620 -21.558  87.141  1.00  0.00    -0.220 N 
ATOM     22  C   UNL     1     -82.567 -21.616  88.105  1.00  0.00     0.156 A 
ATOM     23  N   UNL     1     -82.015 -22.264  86.087  1.00  0.00    -0.172 NA
ATOM     24  C   UNL     1     -83.602 -22.390  87.629  1.00  0.00     0.161 A 
ATOM     25  C   UNL     1     -83.228 -22.784  86.362  1.00  0.00     0.174 A 
ATOM     26  F   UNL     1     -84.748 -22.707  88.279  1.00  0.00    -0.204 F 
ENDBRANCH  20  21
ENDBRANCH  13  15
ENDBRANCH  11  13
ENDBRANCH   1   9
BRANCH   4  27
ATOM     27  C   UNL     1     -74.865 -16.389  94.595  1.00  0.00     0.134 A 
ATOM     28  N   UNL     1     -75.394 -15.492  95.473  1.00  0.00    -0.215 NA
ATOM     29  N   UNL     1     -73.869 -17.220  95.005  1.00  0.00    -0.238 NA
ATOM     30  C   UNL     1     -74.945 -15.396  96.751  1.00  0.00     0.135 A 
ATOM     31  C   UNL     1     -73.370 -17.153  96.267  1.00  0.00     0.043 A 
ATOM     32  C   UNL     1     -73.901 -16.228  97.174  1.00  0.00     0.070 A 
ATOM     33  C   UNL     1     -72.265 -18.069  96.679  1.00  0.00     0.067 C 
BRANCH  30  34
ATOM     34  N   UNL     1     -75.503 -14.396  97.614  1.00  0.00    -0.323 N 
ATOM     35  H   UNL     1     -76.491 -14.516  97.918  1.00  0.00     0.170 HD
BRANCH  34  36
ATOM     36  C   UNL     1     -74.774 -13.267  98.115  1.00  0.00     0.153 A 
ATOM     37  N   UNL     1     -73.849 -12.609  97.386  1.00  0.00    -0.158 NA
ATOM     38  C   UNL     1     -74.963 -12.637  99.338  1.00  0.00     0.071 A 
ATOM     39  N   UNL     1     -73.430 -11.585  98.114  1.00  0.00    -0.281 N 
ATOM     40  C   UNL     1     -74.087 -11.571  99.291  1.00  0.00     0.034 A 
ATOM     41  H   UNL     1     -72.729 -10.885  97.792  1.00  0.00     0.190 HD
ATOM     42  C   UNL     1     -73.874 -10.559 100.372  1.00  0.00     0.066 C 
ENDBRANCH  34  36
ENDBRANCH  30  34
ENDBRANCH   4  27
TORSDOF 8
ENDMDL
MODEL 3
REMARK VINA RESULT:    -9.846      2.116      2.697
REMARK INTER + INTRA:         -15.317
REMARK INTER:                 -14.188
REMARK INTRA:                  -1.128
REMARK UNBOUND:                -0.866
REMARK SMILES CO[C@]1(C(=O)N[C@@H](C)c2ccc(-n3cc(F)cn3)nc2)CC[C@H](c2nc(C)cc(Nc3cc(C)[nH]n3)n2)CC1
REMARK SMILES IDX 3 1 21 2 22 3 23 4 38 5 39 6 2 7 1 8 4 9 5 10 6 11 7 13 8 14
REMARK SMILES IDX 9 15 10 16 20 17 11 18 19 19 12 20 13 21 14 22 18 23 15 24
REMARK SMILES IDX 17 25 16 26 24 27 37 28 25 29 29 30 26 31 28 32 27 33 30 34
REMARK SMILES IDX 31 36 36 37 32 38 35 39 33 40 34 42
REMARK H PARENT 6 12 30 35 35 41
REMARK Flexibility Score: inf
ROOT
ATOM      1  C   UNL     1     -75.199 -16.692  88.539  1.00  0.00     0.146 C 
ATOM      2  C   UNL     1     -75.013 -15.155  88.733  1.00  0.00     0.046 C 
ATOM      3  C   UNL     1     -74.286 -14.840  90.047  1.00  0.00     0.015 C 
ATOM      4  C   UNL     1     -75.049 -15.415  91.255  1.00  0.00     0.058 C 
ATOM      5  C   UNL     1     -75.314 -16.927  91.079  1.00  0.00     0.015 C 
ATOM      6  C   UNL     1     -76.012 -17.224  89.743  1.00  0.00     0.046 C 
ENDROOT
BRANCH   1   7
ATOM      7  O   UNL     1     -73.951 -17.393  88.527  1.00  0.00    -0.368 OA
ATOM      8  C   UNL     1     -73.063 -16.961  87.512  1.00  0.00     0.196 C 
ENDBRANCH   1   7
BRANCH   1   9
ATOM      9  C   UNL     1     -76.005 -17.004  87.286  1.00  0.00     0.252 C 
ATOM     10  O   UNL     1     -76.416 -16.065  86.550  1.00  0.00    -0.272 OA
ATOM     11  N   UNL     1     -76.356 -18.365  86.975  1.00  0.00    -0.347 N 
ATOM     12  H   UNL     1     -76.063 -19.121  87.638  1.00  0.00     0.164 HD
BRANCH  11  13
ATOM     13  C   UNL     1     -77.089 -18.751  85.763  1.00  0.00     0.111 C 
ATOM     14  C   UNL     1     -76.225 -19.683  84.913  1.00  0.00     0.036 C 
BRANCH  13  15
ATOM     15  C   UNL     1     -78.411 -19.415  86.102  1.00  0.00    -0.007 A 
ATOM     16  C   UNL     1     -78.578 -20.204  87.255  1.00  0.00     0.011 A 
ATOM     17  C   UNL     1     -79.478 -19.343  85.188  1.00  0.00     0.119 A 
ATOM     18  C   UNL     1     -79.788 -20.863  87.487  1.00  0.00     0.049 A 
ATOM     19  N   UNL     1     -80.640 -20.006  85.429  1.00  0.00    -0.237 NA
ATOM     20  C   UNL     1     -80.833 -20.758  86.548  1.00  0.00     0.153 A 
BRANCH  20  21
ATOM     21  N   UNL     1     -82.086 -21.445  86.720  1.00  0.00    -0.220 N 
ATOM     22  C   UNL     1     -83.157 -21.038  87.440  1.00  0.00     0.156 A 
ATOM     23  N   UNL     1     -82.340 -22.631  86.179  1.00  0.00    -0.172 NA
ATOM     24  C   UNL     1     -84.125 -22.012  87.338  1.00  0.00     0.161 A 
ATOM     25  C   UNL     1     -83.585 -22.999  86.542  1.00  0.00     0.174 A 
ATOM     26  F   UNL     1     -85.353 -22.005  87.912  1.00  0.00    -0.204 F 
ENDBRANCH  20  21
ENDBRANCH  13  15
ENDBRANCH  11  13
ENDBRANCH   1   9
BRANCH   4  27
ATOM     27  C   UNL     1     -74.269 -15.133  92.512  1.00  0.00     0.134 A 
ATOM     28  N   UNL     1     -74.778 -15.473  93.728  1.00  0.00    -0.215 NA
ATOM     29  N   UNL     1     -72.998 -14.657  92.426  1.00  0.00    -0.238 NA
ATOM     30  C   UNL     1     -74.050 -15.338  94.867  1.00  0.00     0.135 A 
ATOM     31  C   UNL     1     -72.233 -14.486  93.536  1.00  0.00     0.043 A 
ATOM     32  C   UNL     1     -72.750 -14.824  94.793  1.00  0.00     0.070 A 
ATOM     33  C   UNL     1     -70.847 -13.946  93.407  1.00  0.00     0.067 C 
BRANCH  30  34
ATOM     34  N   UNL     1     -74.657 -15.662  96.126  1.00  0.00    -0.323 N 
ATOM     35  H   UNL     1     -74.810 -16.666  96.346  1.00  0.00     0.170 HD
BRANCH  34  36
ATOM     36  C   UNL     1     -75.026 -14.689  97.115  1.00  0.00     0.153 A 
ATOM     37  N   UNL     1     -76.293 -14.530  97.548  1.00  0.00    -0.158 NA
ATOM     38  C   UNL     1     -74.165 -13.863  97.824  1.00  0.00     0.071 A 
ATOM     39  N   UNL     1     -76.269 -13.613  98.504  1.00  0.00    -0.281 N 
ATOM     40  C   UNL     1     -75.001 -13.198  98.698  1.00  0.00     0.034 A 
ATOM     41  H   UNL     1     -77.106 -13.303  99.041  1.00  0.00     0.190 HD
ATOM     42  C   UNL     1     -74.587 -12.165  99.697  1.00  0.00     0.066 C 
ENDBRANCH  34  36
ENDBRANCH  30  34
ENDBRANCH   4  27
TORSDOF 8
ENDMDL
MODEL 4
REMARK VINA RESULT:    -9.825      1.615      2.003
REMARK INTER + INTRA:         -15.286
REMARK INTER:                 -14.113
REMARK INTRA:                  -1.173
REMARK UNBOUND:                -0.866
REMARK SMILES CO[C@]1(C(=O)N[C@@H](C)c2ccc(-n3cc(F)cn3)nc2)CC[C@H](c2nc(C)cc(Nc3cc(C)[nH]n3)n2)CC1
REMARK SMILES IDX 3 1 21 2 22 3 23 4 38 5 39 6 2 7 1 8 4 9 5 10 6 11 7 13 8 14
REMARK SMILES IDX 9 15 10 16 20 17 11 18 19 19 12 20 13 21 14 22 18 23 15 24
REMARK SMILES IDX 17 25 16 26 24 27 37 28 25 29 29 30 26 31 28 32 27 33 30 34
REMARK SMILES IDX 31 36 36 37 32 38 35 39 33 40 34 42
REMARK H PARENT 6 12 30 35 35 41
REMARK Flexibility Score: inf
ROOT
ATOM      1  C   UNL     1     -74.865 -16.616  88.768  1.00  0.00     0.146 C 
ATOM      2  C   UNL     1     -74.930 -15.076  89.005  1.00  0.00     0.046 C 
ATOM      3  C   UNL     1     -74.180 -14.672  90.281  1.00  0.00     0.015 C 
ATOM      4  C   UNL     1     -74.752 -15.398  91.513  1.00  0.00     0.058 C 
ATOM      5  C   UNL     1     -74.768 -16.929  91.301  1.00  0.00     0.015 C 
ATOM      6  C   UNL     1     -75.494 -17.308  90.001  1.00  0.00     0.046 C 
ENDROOT
BRANCH   1   7
ATOM      7  O   UNL     1     -73.520 -17.093  88.655  1.00  0.00    -0.368 OA
ATOM      8  C   UNL     1     -72.834 -16.599  87.519  1.00  0.00     0.196 C 
ENDBRANCH   1   7
BRANCH   1   9
ATOM      9  C   UNL     1     -75.689 -17.031  87.557  1.00  0.00     0.252 C 
ATOM     10  O   UNL     1     -76.365 -16.171  86.929  1.00  0.00    -0.272 OA
ATOM     11  N   UNL     1     -75.749 -18.416  87.168  1.00  0.00    -0.347 N 
ATOM     12  H   UNL     1     -75.235 -19.122  87.746  1.00  0.00     0.164 HD
BRANCH  11  13
ATOM     13  C   UNL     1     -76.482 -18.889  85.987  1.00  0.00     0.111 C 
ATOM     14  C   UNL     1     -75.629 -19.902  85.223  1.00  0.00     0.036 C 
BRANCH  13  15
ATOM     15  C   UNL     1     -77.817 -19.501  86.370  1.00  0.00    -0.007 A 
ATOM     16  C   UNL     1     -78.023 -20.133  87.611  1.00  0.00     0.011 A 
ATOM     17  C   UNL     1     -78.856 -19.548  85.423  1.00  0.00     0.119 A 
ATOM     18  C   UNL     1     -79.242 -20.753  87.891  1.00  0.00     0.049 A 
ATOM     19  N   UNL     1     -80.029 -20.172  85.713  1.00  0.00    -0.237 NA
ATOM     20  C   UNL     1     -80.258 -20.770  86.915  1.00  0.00     0.153 A 
BRANCH  20  21
ATOM     21  N   UNL     1     -81.520 -21.428  87.138  1.00  0.00    -0.220 N 
ATOM     22  C   UNL     1     -82.359 -21.938  86.208  1.00  0.00     0.156 A 
ATOM     23  N   UNL     1     -82.040 -21.601  88.348  1.00  0.00    -0.172 NA
ATOM     24  C   UNL     1     -83.450 -22.457  86.868  1.00  0.00     0.161 A 
ATOM     25  C   UNL     1     -83.223 -22.230  88.209  1.00  0.00     0.174 A 
ATOM     26  F   UNL     1     -84.530 -23.057  86.311  1.00  0.00    -0.204 F 
ENDBRANCH  20  21
ENDBRANCH  13  15
ENDBRANCH  11  13
ENDBRANCH   1   9
BRANCH   4  27
ATOM     27  C   UNL     1     -73.948 -15.017  92.728  1.00  0.00     0.134 A 
ATOM     28  N   UNL     1     -73.016 -14.027  92.654  1.00  0.00    -0.215 NA
ATOM     29  N   UNL     1     -74.243 -15.571  93.935  1.00  0.00    -0.238 NA
ATOM     30  C   UNL     1     -72.360 -13.583  93.757  1.00  0.00     0.135 A 
ATOM     31  C   UNL     1     -73.603 -15.176  95.067  1.00  0.00     0.043 A 
ATOM     32  C   UNL     1     -72.636 -14.166  95.000  1.00  0.00     0.070 A 
ATOM     33  C   UNL     1     -73.940 -15.818  96.372  1.00  0.00     0.067 C 
BRANCH  30  34
ATOM     34  N   UNL     1     -71.349 -12.575  93.610  1.00  0.00    -0.323 N 
ATOM     35  H   UNL     1     -70.480 -12.832  93.102  1.00  0.00     0.170 HD
BRANCH  34  36
ATOM     36  C   UNL     1     -71.483 -11.228  94.084  1.00  0.00     0.153 A 
ATOM     37  N   UNL     1     -72.582 -10.782  94.725  1.00  0.00    -0.158 NA
ATOM     38  C   UNL     1     -70.508 -10.240  94.051  1.00  0.00     0.071 A 
ATOM     39  N   UNL     1     -72.345  -9.530  95.088  1.00  0.00    -0.281 N 
ATOM     40  C   UNL     1     -71.102  -9.178  94.703  1.00  0.00     0.034 A 
ATOM     41  H   UNL     1     -73.013  -8.939  95.625  1.00  0.00     0.190 HD
ATOM     42  C   UNL     1     -70.487  -7.835  94.940  1.00  0.00     0.066 C 
ENDBRANCH  34  36
ENDBRANCH  30  34
ENDBRANCH   4  27
TORSDOF 8
ENDMDL
MODEL 5
REMARK VINA RESULT:    -9.761      4.228     12.534
REMARK INTER + INTRA:         -15.192
REMARK INTER:                 -14.242
REMARK INTRA:                  -0.951
REMARK UNBOUND:                -0.866
REMARK SMILES CO[C@]1(C(=O)N[C@@H](C)c2ccc(-n3cc(F)cn3)nc2)CC[C@H](c2nc(C)cc(Nc3cc(C)[nH]n3)n2)CC1
REMARK SMILES IDX 3 1 21 2 22 3 23 4 38 5 39 6 2 7 1 8 4 9 5 10 6 11 7 13 8 14
REMARK SMILES IDX 9 15 10 16 20 17 11 18 19 19 12 20 13 21 14 22 18 23 15 24
REMARK SMILES IDX 17 25 16 26 24 27 37 28 25 29 29 30 26 31 28 32 27 33 30 34
REMARK SMILES IDX 31 36 36 37 32 38 35 39 33 40 34 42
REMARK H PARENT 6 12 30 35 35 41
REMARK Flexibility Score: inf
ROOT
ATOM      1  C   UNL     1     -74.897 -17.365  91.104  1.00  0.00     0.146 C 
ATOM      2  C   UNL     1     -74.794 -17.338  89.548  1.00  0.00     0.046 C 
ATOM      3  C   UNL     1     -76.030 -17.968  88.893  1.00  0.00     0.015 C 
ATOM      4  C   UNL     1     -76.226 -19.422  89.363  1.00  0.00     0.058 C 
ATOM      5  C   UNL     1     -76.270 -19.509  90.905  1.00  0.00     0.015 C 
ATOM      6  C   UNL     1     -75.040 -18.842  91.541  1.00  0.00     0.046 C 
ENDROOT
BRANCH   1   7
ATOM      7  O   UNL     1     -76.051 -16.667  91.585  1.00  0.00    -0.368 OA
ATOM      8  C   UNL     1     -76.179 -16.681  92.995  1.00  0.00     0.196 C 
ENDBRANCH   1   7
BRANCH   1   9
ATOM      9  C   UNL     1     -73.630 -16.830  91.758  1.00  0.00     0.252 C 
ATOM     10  O   UNL     1     -72.932 -17.583  92.490  1.00  0.00    -0.272 OA
ATOM     11  N   UNL     1     -73.263 -15.448  91.594  1.00  0.00    -0.347 N 
ATOM     12  H   UNL     1     -73.896 -14.824  91.038  1.00  0.00     0.164 HD
BRANCH  11  13
ATOM     13  C   UNL     1     -72.035 -14.869  92.152  1.00  0.00     0.111 C 
ATOM     14  C   UNL     1     -71.324 -14.040  91.082  1.00  0.00     0.036 C 
BRANCH  13  15
ATOM     15  C   UNL     1     -72.328 -14.018  93.374  1.00  0.00    -0.007 A 
ATOM     16  C   UNL     1     -71.995 -12.652  93.433  1.00  0.00     0.011 A 
ATOM     17  C   UNL     1     -72.843 -14.624  94.534  1.00  0.00     0.119 A 
ATOM     18  C   UNL     1     -72.210 -11.925  94.607  1.00  0.00     0.049 A 
ATOM     19  N   UNL     1     -73.029 -13.900  95.669  1.00  0.00    -0.237 NA
ATOM     20  C   UNL     1     -72.735 -12.572  95.743  1.00  0.00     0.153 A 
BRANCH  20  21
ATOM     21  N   UNL     1     -72.941 -11.879  96.988  1.00  0.00    -0.220 N 
ATOM     22  C   UNL     1     -72.100 -11.013  97.598  1.00  0.00     0.156 A 
ATOM     23  N   UNL     1     -74.032 -12.034  97.729  1.00  0.00    -0.172 NA
ATOM     24  C   UNL     1     -72.695 -10.606  98.770  1.00  0.00     0.161 A 
ATOM     25  C   UNL     1     -73.906 -11.263  98.827  1.00  0.00     0.174 A 
ATOM     26  F   UNL     1     -72.190  -9.743  99.686  1.00  0.00    -0.204 F 
ENDBRANCH  20  21
ENDBRANCH  13  15
ENDBRANCH  11  13
ENDBRANCH   1   9
BRANCH   4  27
ATOM     27  C   UNL     1     -77.481 -19.977  88.742  1.00  0.00     0.134 A 
ATOM     28  N   UNL     1     -78.390 -20.644  89.505  1.00  0.00    -0.215 NA
ATOM     29  N   UNL     1     -77.771 -19.700  87.442  1.00  0.00    -0.238 NA
ATOM     30  C   UNL     1     -79.581 -21.053  88.999  1.00  0.00     0.135 A 
ATOM     31  C   UNL     1     -78.942 -20.102  86.881  1.00  0.00     0.043 A 
ATOM     32  C   UNL     1     -79.879 -20.797  87.655  1.00  0.00     0.070 A 
ATOM     33  C   UNL     1     -79.222 -19.796  85.447  1.00  0.00     0.067 C 
BRANCH  30  34
ATOM     34  N   UNL     1     -80.477 -21.799  89.836  1.00  0.00    -0.323 N 
ATOM     35  H   UNL     1     -80.060 -22.462  90.520  1.00  0.00     0.170 HD
BRANCH  34  36
ATOM     36  C   UNL     1     -81.904 -21.656  89.815  1.00  0.00     0.153 A 
ATOM     37  N   UNL     1     -82.602 -21.117  90.836  1.00  0.00    -0.158 NA
ATOM     38  C   UNL     1     -82.748 -21.943  88.751  1.00  0.00     0.071 A 
ATOM     39  N   UNL     1     -83.871 -21.066  90.461  1.00  0.00    -0.281 N 
ATOM     40  C   UNL     1     -83.990 -21.549  89.208  1.00  0.00     0.034 A 
ATOM     41  H   UNL     1     -84.639 -20.671  91.043  1.00  0.00     0.190 HD
ATOM     42  C   UNL     1     -85.278 -21.651  88.454  1.00  0.00     0.066 C 
ENDBRANCH  34  36
ENDBRANCH  30  34
ENDBRANCH   4  27
TORSDOF 8
ENDMDL
MODEL 6
REMARK VINA RESULT:    -9.753      3.588     11.585
REMARK INTER + INTRA:         -15.181
REMARK INTER:                 -13.975
REMARK INTRA:                  -1.206
REMARK UNBOUND:                -0.866
REMARK SMILES CO[C@]1(C(=O)N[C@@H](C)c2ccc(-n3cc(F)cn3)nc2)CC[C@H](c2nc(C)cc(Nc3cc(C)[nH]n3)n2)CC1
REMARK SMILES IDX 3 1 21 2 22 3 23 4 38 5 39 6 2 7 1 8 4 9 5 10 6 11 7 13 8 14
REMARK SMILES IDX 9 15 10 16 20 17 11 18 19 19 12 20 13 21 14 22 18 23 15 24
REMARK SMILES IDX 17 25 16 26 24 27 37 28 25 29 29 30 26 31 28 32 27 33 30 34
REMARK SMILES IDX 31 36 36 37 32 38 35 39 33 40 34 42
REMARK H PARENT 6 12 30 35 35 41
REMARK Flexibility Score: inf
ROOT
ATOM      1  C   UNL     1     -74.355 -17.682  88.436  1.00  0.00     0.146 C 
ATOM      2  C   UNL     1     -75.824 -17.490  88.924  1.00  0.00     0.046 C 
ATOM      3  C   UNL     1     -76.823 -18.169  87.979  1.00  0.00     0.015 C 
ATOM      4  C   UNL     1     -76.690 -17.621  86.546  1.00  0.00     0.058 C 
ATOM      5  C   UNL     1     -75.234 -17.731  86.039  1.00  0.00     0.015 C 
ATOM      6  C   UNL     1     -74.248 -17.074  87.017  1.00  0.00     0.046 C 
ENDROOT
BRANCH   1   7
ATOM      7  O   UNL     1     -73.992 -19.063  88.334  1.00  0.00    -0.368 OA
ATOM      8  C   UNL     1     -74.020 -19.752  89.571  1.00  0.00     0.196 C 
ENDBRANCH   1   7
BRANCH   1   9
ATOM      9  C   UNL     1     -73.369 -16.927  89.317  1.00  0.00     0.252 C 
ATOM     10  O   UNL     1     -72.140 -16.927  89.031  1.00  0.00    -0.272 OA
ATOM     11  N   UNL     1     -73.828 -16.269  90.511  1.00  0.00    -0.347 N 
ATOM     12  H   UNL     1     -74.842 -16.341  90.765  1.00  0.00     0.164 HD
BRANCH  11  13
ATOM     13  C   UNL     1     -72.949 -15.482  91.386  1.00  0.00     0.111 C 
ATOM     14  C   UNL     1     -72.817 -14.061  90.839  1.00  0.00     0.036 C 
BRANCH  13  15
ATOM     15  C   UNL     1     -73.466 -15.456  92.813  1.00  0.00    -0.007 A 
ATOM     16  C   UNL     1     -74.736 -15.953  93.159  1.00  0.00     0.011 A 
ATOM     17  C   UNL     1     -72.711 -14.815  93.812  1.00  0.00     0.119 A 
ATOM     18  C   UNL     1     -75.204 -15.835  94.470  1.00  0.00     0.049 A 
ATOM     19  N   UNL     1     -73.194 -14.700  95.077  1.00  0.00    -0.237 NA
ATOM     20  C   UNL     1     -74.411 -15.192  95.441  1.00  0.00     0.153 A 
BRANCH  20  21
ATOM     21  N   UNL     1     -74.860 -15.012  96.796  1.00  0.00    -0.220 N 
ATOM     22  C   UNL     1     -74.251 -15.432  97.929  1.00  0.00     0.156 A 
ATOM     23  N   UNL     1     -75.996 -14.396  97.106  1.00  0.00    -0.172 NA
ATOM     24  C   UNL     1     -75.040 -15.056  98.993  1.00  0.00     0.161 A 
ATOM     25  C   UNL     1     -76.128 -14.410  98.447  1.00  0.00     0.174 A 
ATOM     26  F   UNL     1     -74.801 -15.286 100.307  1.00  0.00    -0.204 F 
ENDBRANCH  20  21
ENDBRANCH  13  15
ENDBRANCH  11  13
ENDBRANCH   1   9
BRANCH   4  27
ATOM     27  C   UNL     1     -77.646 -18.358  85.645  1.00  0.00     0.134 A 
ATOM     28  N   UNL     1     -78.434 -19.351  86.142  1.00  0.00    -0.215 NA
ATOM     29  N   UNL     1     -77.819 -17.944  84.360  1.00  0.00    -0.238 NA
ATOM     30  C   UNL     1     -79.385 -19.953  85.383  1.00  0.00     0.135 A 
ATOM     31  C   UNL     1     -78.745 -18.525  83.552  1.00  0.00     0.043 A 
ATOM     32  C   UNL     1     -79.553 -19.554  84.051  1.00  0.00     0.070 A 
ATOM     33  C   UNL     1     -78.896 -18.059  82.142  1.00  0.00     0.067 C 
BRANCH  30  34
ATOM     34  N   UNL     1     -80.148 -21.030  85.944  1.00  0.00    -0.323 N 
ATOM     35  H   UNL     1     -79.730 -21.982  85.924  1.00  0.00     0.170 HD
BRANCH  34  36
ATOM     36  C   UNL     1     -81.431 -20.869  86.566  1.00  0.00     0.153 A 
ATOM     37  N   UNL     1     -82.521 -20.438  85.897  1.00  0.00    -0.158 NA
ATOM     38  C   UNL     1     -81.767 -21.208  87.869  1.00  0.00     0.071 A 
ATOM     39  N   UNL     1     -83.541 -20.478  86.741  1.00  0.00    -0.281 N 
ATOM     40  C   UNL     1     -83.120 -20.943  87.934  1.00  0.00     0.034 A 
ATOM     41  H   UNL     1     -84.519 -20.223  86.491  1.00  0.00     0.190 HD
ATOM     42  C   UNL     1     -83.996 -21.122  89.134  1.00  0.00     0.066 C 
ENDBRANCH  34  36
ENDBRANCH  30  34
ENDBRANCH   4  27
TORSDOF 8
ENDMDL
MODEL 7
REMARK VINA RESULT:    -9.713      3.372      4.930
REMARK INTER + INTRA:         -15.121
REMARK INTER:                 -13.975
REMARK INTRA:                  -1.146
REMARK UNBOUND:                -0.866
REMARK SMILES CO[C@]1(C(=O)N[C@@H](C)c2ccc(-n3cc(F)cn3)nc2)CC[C@H](c2nc(C)cc(Nc3cc(C)[nH]n3)n2)CC1
REMARK SMILES IDX 3 1 21 2 22 3 23 4 38 5 39 6 2 7 1 8 4 9 5 10 6 11 7 13 8 14
REMARK SMILES IDX 9 15 10 16 20 17 11 18 19 19 12 20 13 21 14 22 18 23 15 24
REMARK SMILES IDX 17 25 16 26 24 27 37 28 25 29 29 30 26 31 28 32 27 33 30 34
REMARK SMILES IDX 31 36 36 37 32 38 35 39 33 40 34 42
REMARK H PARENT 6 12 30 35 35 41
REMARK Flexibility Score: inf
ROOT
ATOM      1  C   UNL     1     -74.946 -17.690  92.084  1.00  0.00     0.146 C 
ATOM      2  C   UNL     1     -76.116 -17.312  93.043  1.00  0.00     0.046 C 
ATOM      3  C   UNL     1     -75.722 -16.165  93.984  1.00  0.00     0.015 C 
ATOM      4  C   UNL     1     -74.482 -16.536  94.819  1.00  0.00     0.058 C 
ATOM      5  C   UNL     1     -73.312 -16.980  93.914  1.00  0.00     0.015 C 
ATOM      6  C   UNL     1     -73.737 -18.105  92.957  1.00  0.00     0.046 C 
ENDROOT
BRANCH   1   7
ATOM      7  O   UNL     1     -74.526 -16.586  91.276  1.00  0.00    -0.368 OA
ATOM      8  C   UNL     1     -75.581 -15.968  90.562  1.00  0.00     0.196 C 
ENDBRANCH   1   7
BRANCH   1   9
ATOM      9  C   UNL     1     -75.299 -18.891  91.217  1.00  0.00     0.252 C 
ATOM     10  O   UNL     1     -74.383 -19.601  90.719  1.00  0.00    -0.272 OA
ATOM     11  N   UNL     1     -76.676 -19.178  90.911  1.00  0.00    -0.347 N 
ATOM     12  H   UNL     1     -77.416 -18.533  91.278  1.00  0.00     0.164 HD
BRANCH  11  13
ATOM     13  C   UNL     1     -77.100 -20.342  90.122  1.00  0.00     0.111 C 
ATOM     14  C   UNL     1     -78.216 -21.083  90.859  1.00  0.00     0.036 C 
BRANCH  13  15
ATOM     15  C   UNL     1     -77.559 -19.935  88.735  1.00  0.00    -0.007 A 
ATOM     16  C   UNL     1     -78.531 -20.664  88.023  1.00  0.00     0.011 A 
ATOM     17  C   UNL     1     -76.924 -18.864  88.079  1.00  0.00     0.119 A 
ATOM     18  C   UNL     1     -78.866 -20.300  86.716  1.00  0.00     0.049 A 
ATOM     19  N   UNL     1     -77.256 -18.539  86.802  1.00  0.00    -0.237 NA
ATOM     20  C   UNL     1     -78.208 -19.217  86.102  1.00  0.00     0.153 A 
BRANCH  20  21
ATOM     21  N   UNL     1     -78.490 -18.823  84.746  1.00  0.00    -0.220 N 
ATOM     22  C   UNL     1     -79.699 -18.747  84.144  1.00  0.00     0.156 A 
ATOM     23  N   UNL     1     -77.540 -18.491  83.878  1.00  0.00    -0.172 NA
ATOM     24  C   UNL     1     -79.495 -18.343  82.843  1.00  0.00     0.161 A 
ATOM     25  C   UNL     1     -78.132 -18.192  82.704  1.00  0.00     0.174 A 
ATOM     26  F   UNL     1     -80.440 -18.147  81.892  1.00  0.00    -0.204 F 
ENDBRANCH  20  21
ENDBRANCH  13  15
ENDBRANCH  11  13
ENDBRANCH   1   9
BRANCH   4  27
ATOM     27  C   UNL     1     -74.099 -15.361  95.681  1.00  0.00     0.134 A 
ATOM     28  N   UNL     1     -73.055 -14.561  95.329  1.00  0.00    -0.215 NA
ATOM     29  N   UNL     1     -74.877 -15.020  96.744  1.00  0.00    -0.238 NA
ATOM     30  C   UNL     1     -72.759 -13.431  96.021  1.00  0.00     0.135 A 
ATOM     31  C   UNL     1     -74.613 -13.909  97.481  1.00  0.00     0.043 A 
ATOM     32  C   UNL     1     -73.536 -13.085  97.133  1.00  0.00     0.070 A 
ATOM     33  C   UNL     1     -75.477 -13.574  98.652  1.00  0.00     0.067 C 
BRANCH  30  34
ATOM     34  N   UNL     1     -71.615 -12.656  95.637  1.00  0.00    -0.323 N 
ATOM     35  H   UNL     1     -70.688 -13.127  95.639  1.00  0.00     0.170 HD
BRANCH  34  36
ATOM     36  C   UNL     1     -71.677 -11.287  95.210  1.00  0.00     0.153 A 
ATOM     37  N   UNL     1     -72.725 -10.777  94.533  1.00  0.00    -0.158 NA
ATOM     38  C   UNL     1     -70.756 -10.289  95.499  1.00  0.00     0.071 A 
ATOM     39  N   UNL     1     -72.494  -9.484  94.366  1.00  0.00    -0.281 N 
ATOM     40  C   UNL     1     -71.320  -9.159  94.943  1.00  0.00     0.034 A 
ATOM     41  H   UNL     1     -73.150  -8.827  93.895  1.00  0.00     0.190 HD
ATOM     42  C   UNL     1     -70.729  -7.784  94.954  1.00  0.00     0.066 C 
ENDBRANCH  34  36
ENDBRANCH  30  34
ENDBRANCH   4  27
TORSDOF 8
ENDMDL
MODEL 8
REMARK VINA RESULT:    -9.544      1.828      3.597
REMARK INTER + INTRA:         -14.873
REMARK INTER:                 -13.687
REMARK INTRA:                  -1.186
REMARK UNBOUND:                -0.866
REMARK SMILES CO[C@]1(C(=O)N[C@@H](C)c2ccc(-n3cc(F)cn3)nc2)CC[C@H](c2nc(C)cc(Nc3cc(C)[nH]n3)n2)CC1
REMARK SMILES IDX 3 1 21 2 22 3 23 4 38 5 39 6 2 7 1 8 4 9 5 10 6 11 7 13 8 14
REMARK SMILES IDX 9 15 10 16 20 17 11 18 19 19 12 20 13 21 14 22 18 23 15 24
REMARK SMILES IDX 17 25 16 26 24 27 37 28 25 29 29 30 26 31 28 32 27 33 30 34
REMARK SMILES IDX 31 36 36 37 32 38 35 39 33 40 34 42
REMARK H PARENT 6 12 30 35 35 41
REMARK Flexibility Score: inf
ROOT
ATOM      1  C   UNL     1     -74.913 -16.642  87.350  1.00  0.00     0.146 C 
ATOM      2  C   UNL     1     -73.797 -15.565  87.183  1.00  0.00     0.046 C 
ATOM      3  C   UNL     1     -73.125 -15.242  88.524  1.00  0.00     0.015 C 
ATOM      4  C   UNL     1     -74.155 -14.746  89.555  1.00  0.00     0.058 C 
ATOM      5  C   UNL     1     -75.318 -15.752  89.710  1.00  0.00     0.015 C 
ATOM      6  C   UNL     1     -75.955 -16.088  88.352  1.00  0.00     0.046 C 
ENDROOT
BRANCH   1   7
ATOM      7  O   UNL     1     -74.411 -17.866  87.895  1.00  0.00    -0.368 OA
ATOM      8  C   UNL     1     -73.528 -18.556  87.028  1.00  0.00     0.196 C 
ENDBRANCH   1   7
BRANCH   1   9
ATOM      9  C   UNL     1     -75.648 -16.894  86.041  1.00  0.00     0.252 C 
ATOM     10  O   UNL     1     -75.339 -16.239  85.008  1.00  0.00    -0.272 OA
ATOM     11  N   UNL     1     -76.739 -17.832  85.996  1.00  0.00    -0.347 N 
ATOM     12  H   UNL     1     -77.022 -18.313  86.882  1.00  0.00     0.164 HD
BRANCH  11  13
ATOM     13  C   UNL     1     -77.465 -18.165  84.764  1.00  0.00     0.111 C 
ATOM     14  C   UNL     1     -76.565 -18.987  83.842  1.00  0.00     0.036 C 
BRANCH  13  15
ATOM     15  C   UNL     1     -78.748 -18.917  85.062  1.00  0.00    -0.007 A 
ATOM     16  C   UNL     1     -79.962 -18.615  84.415  1.00  0.00     0.011 A 
ATOM     17  C   UNL     1     -78.769 -19.872  86.094  1.00  0.00     0.119 A 
ATOM     18  C   UNL     1     -81.136 -19.279  84.777  1.00  0.00     0.049 A 
ATOM     19  N   UNL     1     -79.928 -20.493  86.439  1.00  0.00    -0.237 NA
ATOM     20  C   UNL     1     -81.109 -20.233  85.813  1.00  0.00     0.153 A 
BRANCH  20  21
ATOM     21  N   UNL     1     -82.297 -20.918  86.250  1.00  0.00    -0.220 N 
ATOM     22  C   UNL     1     -83.331 -20.406  86.956  1.00  0.00     0.156 A 
ATOM     23  N   UNL     1     -82.517 -22.207  86.013  1.00  0.00    -0.172 NA
ATOM     24  C   UNL     1     -84.239 -21.420  87.165  1.00  0.00     0.161 A 
ATOM     25  C   UNL     1     -83.702 -22.538  86.563  1.00  0.00     0.174 A 
ATOM     26  F   UNL     1     -85.415 -21.338  87.834  1.00  0.00    -0.204 F 
ENDBRANCH  20  21
ENDBRANCH  13  15
ENDBRANCH  11  13
ENDBRANCH   1   9
BRANCH   4  27
ATOM     27  C   UNL     1     -73.460 -14.499  90.868  1.00  0.00     0.134 A 
ATOM     28  N   UNL     1     -73.851 -15.165  91.990  1.00  0.00    -0.215 NA
ATOM     29  N   UNL     1     -72.355 -13.707  90.910  1.00  0.00    -0.238 NA
ATOM     30  C   UNL     1     -73.171 -15.051  93.160  1.00  0.00     0.135 A 
ATOM     31  C   UNL     1     -71.649 -13.543  92.059  1.00  0.00     0.043 A 
ATOM     32  C   UNL     1     -72.048 -14.217  93.220  1.00  0.00     0.070 A 
ATOM     33  C   UNL     1     -70.451 -12.653  92.073  1.00  0.00     0.067 C 
BRANCH  30  34
ATOM     34  N   UNL     1     -73.660 -15.734  94.322  1.00  0.00    -0.323 N 
ATOM     35  H   UNL     1     -73.397 -15.354  95.254  1.00  0.00     0.170 HD
BRANCH  34  36
ATOM     36  C   UNL     1     -74.521 -16.881  94.278  1.00  0.00     0.153 A 
ATOM     37  N   UNL     1     -75.866 -16.787  94.255  1.00  0.00    -0.158 NA
ATOM     38  C   UNL     1     -74.127 -18.206  94.156  1.00  0.00     0.071 A 
ATOM     39  N   UNL     1     -76.344 -18.017  94.138  1.00  0.00    -0.281 N 
ATOM     40  C   UNL     1     -75.322 -18.892  94.069  1.00  0.00     0.034 A 
ATOM     41  H   UNL     1     -77.357 -18.248  94.071  1.00  0.00     0.190 HD
ATOM     42  C   UNL     1     -75.478 -20.374  93.936  1.00  0.00     0.066 C 
ENDBRANCH  34  36
ENDBRANCH  30  34
ENDBRANCH   4  27
TORSDOF 8
ENDMDL
MODEL 9
REMARK VINA RESULT:    -9.338      6.336     11.887
REMARK INTER + INTRA:         -14.571
REMARK INTER:                 -13.870
REMARK INTRA:                  -0.701
REMARK UNBOUND:                -0.866
REMARK SMILES CO[C@]1(C(=O)N[C@@H](C)c2ccc(-n3cc(F)cn3)nc2)CC[C@H](c2nc(C)cc(Nc3cc(C)[nH]n3)n2)CC1
REMARK SMILES IDX 3 1 21 2 22 3 23 4 38 5 39 6 2 7 1 8 4 9 5 10 6 11 7 13 8 14
REMARK SMILES IDX 9 15 10 16 20 17 11 18 19 19 12 20 13 21 14 22 18 23 15 24
REMARK SMILES IDX 17 25 16 26 24 27 37 28 25 29 29 30 26 31 28 32 27 33 30 34
REMARK SMILES IDX 31 36 36 37 32 38 35 39 33 40 34 42
REMARK H PARENT 6 12 30 35 35 41
REMARK Flexibility Score: inf
ROOT
ATOM      1  C   UNL     1     -83.845 -20.656  87.795  1.00  0.00     0.146 C 
ATOM      2  C   UNL     1     -83.819 -20.460  89.343  1.00  0.00     0.046 C 
ATOM      3  C   UNL     1     -85.094 -19.768  89.842  1.00  0.00     0.015 C 
ATOM      4  C   UNL     1     -85.283 -18.399  89.162  1.00  0.00     0.058 C 
ATOM      5  C   UNL     1     -85.252 -18.531  87.622  1.00  0.00     0.015 C 
ATOM      6  C   UNL     1     -83.984 -19.257  87.147  1.00  0.00     0.046 C 
ENDROOT
BRANCH   1   7
ATOM      7  O   UNL     1     -84.964 -21.436  87.364  1.00  0.00    -0.368 OA
ATOM      8  C   UNL     1     -85.422 -22.361  88.334  1.00  0.00     0.196 C 
ENDBRANCH   1   7
BRANCH   1   9
ATOM      9  C   UNL     1     -82.540 -21.253  87.286  1.00  0.00     0.252 C 
ATOM     10  O   UNL     1     -82.449 -22.497  87.092  1.00  0.00    -0.272 OA
ATOM     11  N   UNL     1     -81.391 -20.410  87.086  1.00  0.00    -0.347 N 
ATOM     12  H   UNL     1     -81.470 -19.392  87.319  1.00  0.00     0.164 HD
BRANCH  11  13
ATOM     13  C   UNL     1     -80.114 -20.902  86.553  1.00  0.00     0.111 C 
ATOM     14  C   UNL     1     -79.615 -19.956  85.460  1.00  0.00     0.036 C 
BRANCH  13  15
ATOM     15  C   UNL     1     -79.074 -21.044  87.647  1.00  0.00    -0.007 A 
ATOM     16  C   UNL     1     -79.425 -21.290  88.988  1.00  0.00     0.011 A 
ATOM     17  C   UNL     1     -77.718 -20.812  87.351  1.00  0.00     0.119 A 
ATOM     18  C   UNL     1     -78.439 -21.335  89.977  1.00  0.00     0.049 A 
ATOM     19  N   UNL     1     -76.779 -20.845  88.333  1.00  0.00    -0.237 NA
ATOM     20  C   UNL     1     -77.093 -21.103  89.633  1.00  0.00     0.153 A 
BRANCH  20  21
ATOM     21  N   UNL     1     -76.043 -21.101  90.619  1.00  0.00    -0.220 N 
ATOM     22  C   UNL     1     -74.862 -20.445  90.562  1.00  0.00     0.156 A 
ATOM     23  N   UNL     1     -76.111 -21.796  91.748  1.00  0.00    -0.172 NA
ATOM     24  C   UNL     1     -74.164 -20.740  91.712  1.00  0.00     0.161 A 
ATOM     25  C   UNL     1     -74.971 -21.590  92.436  1.00  0.00     0.174 A 
ATOM     26  F   UNL     1     -72.930 -20.294  92.054  1.00  0.00    -0.204 F 
ENDBRANCH  20  21
ENDBRANCH  13  15
ENDBRANCH  11  13
ENDBRANCH   1   9
BRANCH   4  27
ATOM     27  C   UNL     1     -86.574 -17.786  89.637  1.00  0.00     0.134 A 
ATOM     28  N   UNL     1     -87.272 -18.356  90.657  1.00  0.00    -0.215 NA
ATOM     29  N   UNL     1     -86.979 -16.588  89.135  1.00  0.00    -0.238 NA
ATOM     30  C   UNL     1     -88.376 -17.764  91.184  1.00  0.00     0.135 A 
ATOM     31  C   UNL     1     -88.086 -15.962  89.613  1.00  0.00     0.043 A 
ATOM     32  C   UNL     1     -88.816 -16.544  90.656  1.00  0.00     0.070 A 
ATOM     33  C   UNL     1     -88.512 -14.656  89.027  1.00  0.00     0.067 C 
BRANCH  30  34
ATOM     34  N   UNL     1     -89.102 -18.437  92.221  1.00  0.00    -0.323 N 
ATOM     35  H   UNL     1     -89.912 -19.026  91.942  1.00  0.00     0.170 HD
BRANCH  34  36
ATOM     36  C   UNL     1     -88.755 -18.381  93.613  1.00  0.00     0.153 A 
ATOM     37  N   UNL     1     -87.989 -17.403  94.138  1.00  0.00    -0.158 NA
ATOM     38  C   UNL     1     -89.211 -19.227  94.613  1.00  0.00     0.071 A 
ATOM     39  N   UNL     1     -87.930 -17.609  95.445  1.00  0.00    -0.281 N 
ATOM     40  C   UNL     1     -88.662 -18.695  95.762  1.00  0.00     0.034 A 
ATOM     41  H   UNL     1     -87.424 -16.991  96.113  1.00  0.00     0.190 HD
ATOM     42  C   UNL     1     -88.826 -19.235  97.148  1.00  0.00     0.066 C 
ENDBRANCH  34  36
ENDBRANCH  30  34
ENDBRANCH   4  27
TORSDOF 8
ENDMDL
MODEL 10
REMARK VINA RESULT:    -9.284      3.867     11.724
REMARK INTER + INTRA:         -14.492
REMARK INTER:                 -14.209
REMARK INTRA:                  -0.283
REMARK UNBOUND:                -0.866
REMARK SMILES CO[C@]1(C(=O)N[C@@H](C)c2ccc(-n3cc(F)cn3)nc2)CC[C@H](c2nc(C)cc(Nc3cc(C)[nH]n3)n2)CC1
REMARK SMILES IDX 3 1 21 2 22 3 23 4 38 5 39 6 2 7 1 8 4 9 5 10 6 11 7 13 8 14
REMARK SMILES IDX 9 15 10 16 20 17 11 18 19 19 12 20 13 21 14 22 18 23 15 24
REMARK SMILES IDX 17 25 16 26 24 27 37 28 25 29 29 30 26 31 28 32 27 33 30 34
REMARK SMILES IDX 31 36 36 37 32 38 35 39 33 40 34 42
REMARK H PARENT 6 12 30 35 35 41
REMARK Flexibility Score: inf
ROOT
ATOM      1  C   UNL     1     -75.549 -18.412  88.882  1.00  0.00     0.146 C 
ATOM      2  C   UNL     1     -74.867 -18.713  87.512  1.00  0.00     0.046 C 
ATOM      3  C   UNL     1     -75.853 -18.553  86.348  1.00  0.00     0.015 C 
ATOM      4  C   UNL     1     -77.071 -19.480  86.522  1.00  0.00     0.058 C 
ATOM      5  C   UNL     1     -77.745 -19.263  87.895  1.00  0.00     0.015 C 
ATOM      6  C   UNL     1     -76.733 -19.394  89.044  1.00  0.00     0.046 C 
ENDROOT
BRANCH   1   7
ATOM      7  O   UNL     1     -76.086 -17.086  88.942  1.00  0.00    -0.368 OA
ATOM      8  C   UNL     1     -75.223 -16.097  88.411  1.00  0.00     0.196 C 
ENDBRANCH   1   7
BRANCH   1   9
ATOM      9  C   UNL     1     -74.601 -18.664  90.046  1.00  0.00     0.252 C 
ATOM     10  O   UNL     1     -73.957 -19.747  90.113  1.00  0.00    -0.272 OA
ATOM     11  N   UNL     1     -74.486 -17.695  91.105  1.00  0.00    -0.347 N 
ATOM     12  H   UNL     1     -75.082 -16.835  91.063  1.00  0.00     0.164 HD
BRANCH  11  13
ATOM     13  C   UNL     1     -73.561 -17.843  92.236  1.00  0.00     0.111 C 
ATOM     14  C   UNL     1     -72.170 -17.355  91.829  1.00  0.00     0.036 C 
BRANCH  13  15
ATOM     15  C   UNL     1     -74.052 -17.089  93.457  1.00  0.00    -0.007 A 
ATOM     16  C   UNL     1     -75.364 -16.588  93.551  1.00  0.00     0.011 A 
ATOM     17  C   UNL     1     -73.148 -16.773  94.487  1.00  0.00     0.119 A 
ATOM     18  C   UNL     1     -75.750 -15.830  94.659  1.00  0.00     0.049 A 
ATOM     19  N   UNL     1     -73.543 -16.021  95.549  1.00  0.00    -0.237 NA
ATOM     20  C   UNL     1     -74.813 -15.544  95.671  1.00  0.00     0.153 A 
BRANCH  20  21
ATOM     21  N   UNL     1     -75.148 -14.737  96.816  1.00  0.00    -0.220 N 
ATOM     22  C   UNL     1     -74.320 -13.949  97.539  1.00  0.00     0.156 A 
ATOM     23  N   UNL     1     -76.372 -14.686  97.330  1.00  0.00    -0.172 NA
ATOM     24  C   UNL     1     -75.062 -13.377  98.549  1.00  0.00     0.161 A 
ATOM     25  C   UNL     1     -76.345 -13.858  98.393  1.00  0.00     0.174 A 
ATOM     26  F   UNL     1     -74.619 -12.525  99.505  1.00  0.00    -0.204 F 
ENDBRANCH  20  21
ENDBRANCH  13  15
ENDBRANCH  11  13
ENDBRANCH   1   9
BRANCH   4  27
ATOM     27  C   UNL     1     -78.036 -19.245  85.389  1.00  0.00     0.134 A 
ATOM     28  N   UNL     1     -79.364 -19.493  85.555  1.00  0.00    -0.215 NA
ATOM     29  N   UNL     1     -77.601 -18.661  84.241  1.00  0.00    -0.238 NA
ATOM     30  C   UNL     1     -80.272 -19.182  84.594  1.00  0.00     0.135 A 
ATOM     31  C   UNL     1     -78.465 -18.346  83.240  1.00  0.00     0.043 A 
ATOM     32  C   UNL     1     -79.832 -18.605  83.397  1.00  0.00     0.070 A 
ATOM     33  C   UNL     1     -77.951 -17.720  81.985  1.00  0.00     0.067 C 
BRANCH  30  34
ATOM     34  N   UNL     1     -81.652 -19.516  84.802  1.00  0.00    -0.323 N 
ATOM     35  H   UNL     1     -82.329 -19.263  84.055  1.00  0.00     0.170 HD
BRANCH  34  36
ATOM     36  C   UNL     1     -82.146 -20.213  85.955  1.00  0.00     0.153 A 
ATOM     37  N   UNL     1     -83.461 -20.371  86.207  1.00  0.00    -0.158 NA
ATOM     38  C   UNL     1     -81.386 -20.890  86.899  1.00  0.00     0.071 A 
ATOM     39  N   UNL     1     -83.565 -21.118  87.297  1.00  0.00    -0.281 N 
ATOM     40  C   UNL     1     -82.333 -21.452  87.732  1.00  0.00     0.034 A 
ATOM     41  H   UNL     1     -84.469 -21.424  87.714  1.00  0.00     0.190 HD
ATOM     42  C   UNL     1     -82.057 -22.288  88.942  1.00  0.00     0.066 C 
ENDBRANCH  34  36
ENDBRANCH  30  34
ENDBRANCH   4  27
TORSDOF 8
ENDMDL
MODEL 11
REMARK VINA RESULT:    -9.278      1.837      4.188
REMARK INTER + INTRA:         -14.484
REMARK INTER:                 -13.470
REMARK INTRA:                  -1.013
REMARK UNBOUND:                -0.866
REMARK SMILES CO[C@]1(C(=O)N[C@@H](C)c2ccc(-n3cc(F)cn3)nc2)CC[C@H](c2nc(C)cc(Nc3cc(C)[nH]n3)n2)CC1
REMARK SMILES IDX 3 1 21 2 22 3 23 4 38 5 39 6 2 7 1 8 4 9 5 10 6 11 7 13 8 14
REMARK SMILES IDX 9 15 10 16 20 17 11 18 19 19 12 20 13 21 14 22 18 23 15 24
REMARK SMILES IDX 17 25 16 26 24 27 37 28 25 29 29 30 26 31 28 32 27 33 30 34
REMARK SMILES IDX 31 36 36 37 32 38 35 39 33 40 34 42
REMARK H PARENT 6 12 30 35 35 41
REMARK Flexibility Score: inf
ROOT
ATOM      1  C   UNL     1     -75.646 -17.102  87.612  1.00  0.00     0.146 C 
ATOM      2  C   UNL     1     -75.683 -15.607  88.056  1.00  0.00     0.046 C 
ATOM      3  C   UNL     1     -75.018 -15.412  89.425  1.00  0.00     0.015 C 
ATOM      4  C   UNL     1     -75.701 -16.276  90.501  1.00  0.00     0.058 C 
ATOM      5  C   UNL     1     -75.746 -17.762  90.077  1.00  0.00     0.015 C 
ATOM      6  C   UNL     1     -76.385 -17.931  88.690  1.00  0.00     0.046 C 
ENDROOT
BRANCH   1   7
ATOM      7  O   UNL     1     -74.312 -17.611  87.527  1.00  0.00    -0.368 OA
ATOM      8  C   UNL     1     -74.245 -18.974  87.148  1.00  0.00     0.196 C 
ENDBRANCH   1   7
BRANCH   1   9
ATOM      9  C   UNL     1     -76.391 -17.315  86.301  1.00  0.00     0.252 C 
ATOM     10  O   UNL     1     -76.033 -16.691  85.264  1.00  0.00    -0.272 OA
ATOM     11  N   UNL     1     -77.543 -18.176  86.259  1.00  0.00    -0.347 N 
ATOM     12  H   UNL     1     -77.863 -18.629  87.148  1.00  0.00     0.164 HD
BRANCH  11  13
ATOM     13  C   UNL     1     -78.285 -18.469  85.026  1.00  0.00     0.111 C 
ATOM     14  C   UNL     1     -77.372 -19.191  84.035  1.00  0.00     0.036 C 
BRANCH  13  15
ATOM     15  C   UNL     1     -79.523 -19.300  85.308  1.00  0.00    -0.007 A 
ATOM     16  C   UNL     1     -80.790 -18.952  84.801  1.00  0.00     0.011 A 
ATOM     17  C   UNL     1     -79.441 -20.390  86.193  1.00  0.00     0.119 A 
ATOM     18  C   UNL     1     -81.917 -19.700  85.151  1.00  0.00     0.049 A 
ATOM     19  N   UNL     1     -80.555 -21.093  86.530  1.00  0.00    -0.237 NA
ATOM     20  C   UNL     1     -81.787 -20.788  86.036  1.00  0.00     0.153 A 
BRANCH  20  21
ATOM     21  N   UNL     1     -82.921 -21.569  86.457  1.00  0.00    -0.220 N 
ATOM     22  C   UNL     1     -83.638 -21.431  87.596  1.00  0.00     0.156 A 
ATOM     23  N   UNL     1     -83.407 -22.580  85.746  1.00  0.00    -0.172 NA
ATOM     24  C   UNL     1     -84.619 -22.397  87.592  1.00  0.00     0.161 A 
ATOM     25  C   UNL     1     -84.449 -23.104  86.420  1.00  0.00     0.174 A 
ATOM     26  F   UNL     1     -85.553 -22.616  88.550  1.00  0.00    -0.204 F 
ENDBRANCH  20  21
ENDBRANCH  13  15
ENDBRANCH  11  13
ENDBRANCH   1   9
BRANCH   4  27
ATOM     27  C   UNL     1     -74.978 -16.098  91.810  1.00  0.00     0.134 A 
ATOM     28  N   UNL     1     -75.061 -17.051  92.779  1.00  0.00    -0.215 NA
ATOM     29  N   UNL     1     -74.135 -15.044  91.978  1.00  0.00    -0.238 NA
ATOM     30  C   UNL     1     -74.330 -16.973  93.920  1.00  0.00     0.135 A 
ATOM     31  C   UNL     1     -73.394 -14.908  93.109  1.00  0.00     0.043 A 
ATOM     32  C   UNL     1     -73.479 -15.878  94.115  1.00  0.00     0.070 A 
ATOM     33  C   UNL     1     -72.491 -13.730  93.268  1.00  0.00     0.067 C 
BRANCH  30  34
ATOM     34  N   UNL     1     -74.499 -17.979  94.928  1.00  0.00    -0.323 N 
ATOM     35  H   UNL     1     -74.921 -17.691  95.834  1.00  0.00     0.170 HD
BRANCH  34  36
ATOM     36  C   UNL     1     -74.161 -19.362  94.749  1.00  0.00     0.153 A 
ATOM     37  N   UNL     1     -72.888 -19.803  94.683  1.00  0.00    -0.158 NA
ATOM     38  C   UNL     1     -75.046 -20.431  94.716  1.00  0.00     0.071 A 
ATOM     39  N   UNL     1     -72.934 -21.124  94.594  1.00  0.00    -0.281 N 
ATOM     40  C   UNL     1     -74.218 -21.532  94.618  1.00  0.00     0.034 A 
ATOM     41  H   UNL     1     -72.094 -21.738  94.553  1.00  0.00     0.190 HD
ATOM     42  C   UNL     1     -74.658 -22.960  94.534  1.00  0.00     0.066 C 
ENDBRANCH  34  36
ENDBRANCH  30  34
ENDBRANCH   4  27
TORSDOF 8
ENDMDL
MODEL 12
REMARK VINA RESULT:    -9.256      2.692      4.377
REMARK INTER + INTRA:         -14.450
REMARK INTER:                 -13.536
REMARK INTRA:                  -0.915
REMARK UNBOUND:                -0.866
REMARK SMILES CO[C@]1(C(=O)N[C@@H](C)c2ccc(-n3cc(F)cn3)nc2)CC[C@H](c2nc(C)cc(Nc3cc(C)[nH]n3)n2)CC1
REMARK SMILES IDX 3 1 21 2 22 3 23 4 38 5 39 6 2 7 1 8 4 9 5 10 6 11 7 13 8 14
REMARK SMILES IDX 9 15 10 16 20 17 11 18 19 19 12 20 13 21 14 22 18 23 15 24
REMARK SMILES IDX 17 25 16 26 24 27 37 28 25 29 29 30 26 31 28 32 27 33 30 34
REMARK SMILES IDX 31 36 36 37 32 38 35 39 33 40 34 42
REMARK H PARENT 6 12 30 35 35 41
REMARK Flexibility Score: inf
ROOT
ATOM      1  C   UNL     1     -75.160 -16.535  92.074  1.00  0.00     0.146 C 
ATOM      2  C   UNL     1     -75.637 -17.210  93.397  1.00  0.00     0.046 C 
ATOM      3  C   UNL     1     -75.497 -16.261  94.593  1.00  0.00     0.015 C 
ATOM      4  C   UNL     1     -74.039 -15.792  94.761  1.00  0.00     0.058 C 
ATOM      5  C   UNL     1     -73.499 -15.171  93.453  1.00  0.00     0.015 C 
ATOM      6  C   UNL     1     -73.680 -16.125  92.262  1.00  0.00     0.046 C 
ENDROOT
BRANCH   1   7
ATOM      7  O   UNL     1     -75.895 -15.344  91.776  1.00  0.00    -0.368 OA
ATOM      8  C   UNL     1     -77.210 -15.339  92.302  1.00  0.00     0.196 C 
ENDBRANCH   1   7
BRANCH   1   9
ATOM      9  C   UNL     1     -75.205 -17.506  90.902  1.00  0.00     0.252 C 
ATOM     10  O   UNL     1     -74.867 -17.120  89.750  1.00  0.00    -0.272 OA
ATOM     11  N   UNL     1     -75.695 -18.846  91.095  1.00  0.00    -0.347 N 
ATOM     12  H   UNL     1     -76.036 -19.122  92.047  1.00  0.00     0.164 HD
BRANCH  11  13
ATOM     13  C   UNL     1     -75.726 -19.854  90.028  1.00  0.00     0.111 C 
ATOM     14  C   UNL     1     -74.996 -21.115  90.491  1.00  0.00     0.036 C 
BRANCH  13  15
ATOM     15  C   UNL     1     -77.149 -20.185  89.618  1.00  0.00    -0.007 A 
ATOM     16  C   UNL     1     -78.056 -20.808  90.495  1.00  0.00     0.011 A 
ATOM     17  C   UNL     1     -77.555 -19.971  88.288  1.00  0.00     0.119 A 
ATOM     18  C   UNL     1     -79.331 -21.167  90.050  1.00  0.00     0.049 A 
ATOM     19  N   UNL     1     -78.795 -20.343  87.875  1.00  0.00    -0.237 NA
ATOM     20  C   UNL     1     -79.697 -20.928  88.711  1.00  0.00     0.153 A 
BRANCH  20  21
ATOM     21  N   UNL     1     -80.984 -21.312  88.192  1.00  0.00    -0.220 N 
ATOM     22  C   UNL     1     -81.946 -22.025  88.821  1.00  0.00     0.156 A 
ATOM     23  N   UNL     1     -81.388 -21.009  86.964  1.00  0.00    -0.172 NA
ATOM     24  C   UNL     1     -83.000 -22.168  87.946  1.00  0.00     0.161 A 
ATOM     25  C   UNL     1     -82.621 -21.522  86.789  1.00  0.00     0.174 A 
ATOM     26  F   UNL     1     -84.166 -22.821  88.173  1.00  0.00    -0.204 F 
ENDBRANCH  20  21
ENDBRANCH  13  15
ENDBRANCH  11  13
ENDBRANCH   1   9
BRANCH   4  27
ATOM     27  C   UNL     1     -73.963 -14.818  95.908  1.00  0.00     0.134 A 
ATOM     28  N   UNL     1     -72.989 -13.866  95.939  1.00  0.00    -0.215 NA
ATOM     29  N   UNL     1     -74.945 -14.803  96.849  1.00  0.00    -0.238 NA
ATOM     30  C   UNL     1     -72.965 -12.904  96.897  1.00  0.00     0.135 A 
ATOM     31  C   UNL     1     -74.957 -13.873  97.840  1.00  0.00     0.043 A 
ATOM     32  C   UNL     1     -73.955 -12.896  97.886  1.00  0.00     0.070 A 
ATOM     33  C   UNL     1     -76.041 -13.896  98.866  1.00  0.00     0.067 C 
BRANCH  30  34
ATOM     34  N   UNL     1     -71.884 -11.960  96.911  1.00  0.00    -0.323 N 
ATOM     35  H   UNL     1     -71.104 -12.127  97.578  1.00  0.00     0.170 HD
BRANCH  34  36
ATOM     36  C   UNL     1     -71.794 -10.827  96.035  1.00  0.00     0.153 A 
ATOM     37  N   UNL     1     -70.683 -10.071  95.928  1.00  0.00    -0.158 NA
ATOM     38  C   UNL     1     -72.756 -10.407  95.126  1.00  0.00     0.071 A 
ATOM     39  N   UNL     1     -70.912  -9.167  94.986  1.00  0.00    -0.281 N 
ATOM     40  C   UNL     1     -72.149  -9.349  94.480  1.00  0.00     0.034 A 
ATOM     41  H   UNL     1     -70.217  -8.459  94.671  1.00  0.00     0.190 HD
ATOM     42  C   UNL     1     -72.756  -8.512  93.399  1.00  0.00     0.066 C 
ENDBRANCH  34  36
ENDBRANCH  30  34
ENDBRANCH   4  27
TORSDOF 8
ENDMDL
MODEL 13
REMARK VINA RESULT:    -9.204      4.077     12.035
REMARK INTER + INTRA:         -14.375
REMARK INTER:                 -13.592
REMARK INTRA:                  -0.783
REMARK UNBOUND:                -0.866
REMARK SMILES CO[C@]1(C(=O)N[C@@H](C)c2ccc(-n3cc(F)cn3)nc2)CC[C@H](c2nc(C)cc(Nc3cc(C)[nH]n3)n2)CC1
REMARK SMILES IDX 3 1 21 2 22 3 23 4 38 5 39 6 2 7 1 8 4 9 5 10 6 11 7 13 8 14
REMARK SMILES IDX 9 15 10 16 20 17 11 18 19 19 12 20 13 21 14 22 18 23 15 24
REMARK SMILES IDX 17 25 16 26 24 27 37 28 25 29 29 30 26 31 28 32 27 33 30 34
REMARK SMILES IDX 31 36 36 37 32 38 35 39 33 40 34 42
REMARK H PARENT 6 12 30 35 35 41
REMARK Flexibility Score: inf
ROOT
ATOM      1  C   UNL     1     -75.181 -17.351  89.946  1.00  0.00     0.146 C 
ATOM      2  C   UNL     1     -75.016 -17.255  88.398  1.00  0.00     0.046 C 
ATOM      3  C   UNL     1     -76.289 -17.703  87.669  1.00  0.00     0.015 C 
ATOM      4  C   UNL     1     -76.667 -19.147  88.049  1.00  0.00     0.058 C 
ATOM      5  C   UNL     1     -76.781 -19.308  89.582  1.00  0.00     0.015 C 
ATOM      6  C   UNL     1     -75.509 -18.823  90.294  1.00  0.00     0.046 C 
ENDROOT
BRANCH   1   7
ATOM      7  O   UNL     1     -76.266 -16.551  90.428  1.00  0.00    -0.368 OA
ATOM      8  C   UNL     1     -76.356 -16.503  91.841  1.00  0.00     0.196 C 
ENDBRANCH   1   7
BRANCH   1   9
ATOM      9  C   UNL     1     -73.888 -17.002  90.670  1.00  0.00     0.252 C 
ATOM     10  O   UNL     1     -73.325 -17.859  91.405  1.00  0.00    -0.272 OA
ATOM     11  N   UNL     1     -73.342 -15.674  90.568  1.00  0.00    -0.347 N 
ATOM     12  H   UNL     1     -73.865 -14.959  90.008  1.00  0.00     0.164 HD
BRANCH  11  13
ATOM     13  C   UNL     1     -72.077 -15.272  91.197  1.00  0.00     0.111 C 
ATOM     14  C   UNL     1     -71.246 -14.458  90.205  1.00  0.00     0.036 C 
BRANCH  13  15
ATOM     15  C   UNL     1     -72.315 -14.478  92.467  1.00  0.00    -0.007 A 
ATOM     16  C   UNL     1     -72.060 -13.096  92.546  1.00  0.00     0.011 A 
ATOM     17  C   UNL     1     -72.695 -15.149  93.644  1.00  0.00     0.119 A 
ATOM     18  C   UNL     1     -72.217 -12.420  93.758  1.00  0.00     0.049 A 
ATOM     19  N   UNL     1     -72.827 -14.472  94.815  1.00  0.00    -0.237 NA
ATOM     20  C   UNL     1     -72.606 -13.131  94.910  1.00  0.00     0.153 A 
BRANCH  20  21
ATOM     21  N   UNL     1     -72.747 -12.490  96.192  1.00  0.00    -0.220 N 
ATOM     22  C   UNL     1     -71.946 -11.542  96.731  1.00  0.00     0.156 A 
ATOM     23  N   UNL     1     -73.722 -12.785  97.044  1.00  0.00    -0.172 NA
ATOM     24  C   UNL     1     -72.448 -11.229  97.975  1.00  0.00     0.161 A 
ATOM     25  C   UNL     1     -73.561 -12.024  98.145  1.00  0.00     0.174 A 
ATOM     26  F   UNL     1     -71.943 -10.330  98.855  1.00  0.00    -0.204 F 
ENDBRANCH  20  21
ENDBRANCH  13  15
ENDBRANCH  11  13
ENDBRANCH   1   9
BRANCH   4  27
ATOM     27  C   UNL     1     -77.952 -19.519  87.358  1.00  0.00     0.134 A 
ATOM     28  N   UNL     1     -78.142 -19.211  86.045  1.00  0.00    -0.215 NA
ATOM     29  N   UNL     1     -78.873 -20.281  88.008  1.00  0.00    -0.238 NA
ATOM     30  C   UNL     1     -79.239 -19.634  85.366  1.00  0.00     0.135 A 
ATOM     31  C   UNL     1     -79.997 -20.716  87.379  1.00  0.00     0.043 A 
ATOM     32  C   UNL     1     -80.206 -20.396  86.032  1.00  0.00     0.070 A 
ATOM     33  C   UNL     1     -80.995 -21.536  88.127  1.00  0.00     0.067 C 
BRANCH  30  34
ATOM     34  N   UNL     1     -79.412 -19.233  83.999  1.00  0.00    -0.323 N 
ATOM     35  H   UNL     1     -80.361 -19.325  83.584  1.00  0.00     0.170 HD
BRANCH  34  36
ATOM     36  C   UNL     1     -78.369 -18.677  83.186  1.00  0.00     0.153 A 
ATOM     37  N   UNL     1     -78.611 -17.855  82.145  1.00  0.00    -0.158 NA
ATOM     38  C   UNL     1     -77.002 -18.808  83.391  1.00  0.00     0.071 A 
ATOM     39  N   UNL     1     -77.437 -17.469  81.668  1.00  0.00    -0.281 N 
ATOM     40  C   UNL     1     -76.450 -18.020  82.401  1.00  0.00     0.034 A 
ATOM     41  H   UNL     1     -77.317 -16.807  80.872  1.00  0.00     0.190 HD
ATOM     42  C   UNL     1     -74.989 -17.812  82.154  1.00  0.00     0.066 C 
ENDBRANCH  34  36
ENDBRANCH  30  34
ENDBRANCH   4  27
TORSDOF 8
ENDMDL
MODEL 14
REMARK VINA RESULT:    -9.154      2.929      4.884
REMARK INTER + INTRA:         -14.301
REMARK INTER:                 -13.222
REMARK INTRA:                  -1.080
REMARK UNBOUND:                -0.866
REMARK SMILES CO[C@]1(C(=O)N[C@@H](C)c2ccc(-n3cc(F)cn3)nc2)CC[C@H](c2nc(C)cc(Nc3cc(C)[nH]n3)n2)CC1
REMARK SMILES IDX 3 1 21 2 22 3 23 4 38 5 39 6 2 7 1 8 4 9 5 10 6 11 7 13 8 14
REMARK SMILES IDX 9 15 10 16 20 17 11 18 19 19 12 20 13 21 14 22 18 23 15 24
REMARK SMILES IDX 17 25 16 26 24 27 37 28 25 29 29 30 26 31 28 32 27 33 30 34
REMARK SMILES IDX 31 36 36 37 32 38 35 39 33 40 34 42
REMARK H PARENT 6 12 30 35 35 41
REMARK Flexibility Score: inf
ROOT
ATOM      1  C   UNL     1     -74.513 -16.151  91.241  1.00  0.00     0.146 C 
ATOM      2  C   UNL     1     -74.175 -16.610  92.693  1.00  0.00     0.046 C 
ATOM      3  C   UNL     1     -73.914 -15.411  93.613  1.00  0.00     0.015 C 
ATOM      4  C   UNL     1     -72.763 -14.540  93.077  1.00  0.00     0.058 C 
ATOM      5  C   UNL     1     -73.022 -14.111  91.615  1.00  0.00     0.015 C 
ATOM      6  C   UNL     1     -73.314 -15.324  90.717  1.00  0.00     0.046 C 
ENDROOT
BRANCH   1   7
ATOM      7  O   UNL     1     -75.665 -15.303  91.192  1.00  0.00    -0.368 OA
ATOM      8  C   UNL     1     -76.721 -15.729  92.035  1.00  0.00     0.196 C 
ENDBRANCH   1   7
BRANCH   1   9
ATOM      9  C   UNL     1     -74.676 -17.338  90.302  1.00  0.00     0.252 C 
ATOM     10  O   UNL     1     -74.582 -17.174  89.055  1.00  0.00    -0.272 OA
ATOM     11  N   UNL     1     -75.000 -18.636  90.832  1.00  0.00    -0.347 N 
ATOM     12  H   UNL     1     -75.141 -18.734  91.866  1.00  0.00     0.164 HD
BRANCH  11  13
ATOM     13  C   UNL     1     -75.127 -19.839  89.999  1.00  0.00     0.111 C 
ATOM     14  C   UNL     1     -74.448 -21.020  90.693  1.00  0.00     0.036 C 
BRANCH  13  15
ATOM     15  C   UNL     1     -76.581 -20.160  89.706  1.00  0.00    -0.007 A 
ATOM     16  C   UNL     1     -77.364 -20.946  90.571  1.00  0.00     0.011 A 
ATOM     17  C   UNL     1     -77.146 -19.762  88.480  1.00  0.00     0.119 A 
ATOM     18  C   UNL     1     -78.674 -21.284  90.223  1.00  0.00     0.049 A 
ATOM     19  N   UNL     1     -78.417 -20.117  88.157  1.00  0.00    -0.237 NA
ATOM     20  C   UNL     1     -79.201 -20.859  88.988  1.00  0.00     0.153 A 
BRANCH  20  21
ATOM     21  N   UNL     1     -80.532 -21.210  88.565  1.00  0.00    -0.220 N 
ATOM     22  C   UNL     1     -81.044 -21.138  87.315  1.00  0.00     0.156 A 
ATOM     23  N   UNL     1     -81.464 -21.651  89.402  1.00  0.00    -0.172 NA
ATOM     24  C   UNL     1     -82.354 -21.558  87.375  1.00  0.00     0.161 A 
ATOM     25  C   UNL     1     -82.590 -21.872  88.696  1.00  0.00     0.174 A 
ATOM     26  F   UNL     1     -83.234 -21.636  86.346  1.00  0.00    -0.204 F 
ENDBRANCH  20  21
ENDBRANCH  13  15
ENDBRANCH  11  13
ENDBRANCH   1   9
BRANCH   4  27
ATOM     27  C   UNL     1     -72.584 -13.347  93.979  1.00  0.00     0.134 A 
ATOM     28  N   UNL     1     -72.591 -13.500  95.332  1.00  0.00    -0.215 NA
ATOM     29  N   UNL     1     -72.286 -12.133  93.442  1.00  0.00    -0.238 NA
ATOM     30  C   UNL     1     -72.317 -12.464  96.167  1.00  0.00     0.135 A 
ATOM     31  C   UNL     1     -72.022 -11.059  94.233  1.00  0.00     0.043 A 
ATOM     32  C   UNL     1     -72.035 -11.204  95.626  1.00  0.00     0.070 A 
ATOM     33  C   UNL     1     -71.714  -9.737  93.611  1.00  0.00     0.067 C 
BRANCH  30  34
ATOM     34  N   UNL     1     -72.391 -12.671  97.584  1.00  0.00    -0.323 N 
ATOM     35  H   UNL     1     -71.499 -12.690  98.118  1.00  0.00     0.170 HD
BRANCH  34  36
ATOM     36  C   UNL     1     -73.619 -12.813  98.313  1.00  0.00     0.153 A 
ATOM     37  N   UNL     1     -73.920 -12.065  99.394  1.00  0.00    -0.158 NA
ATOM     38  C   UNL     1     -74.688 -13.634  97.980  1.00  0.00     0.071 A 
ATOM     39  N   UNL     1     -75.146 -12.395  99.772  1.00  0.00    -0.281 N 
ATOM     40  C   UNL     1     -75.637 -13.332  98.936  1.00  0.00     0.034 A 
ATOM     41  H   UNL     1     -75.651 -11.957 100.571  1.00  0.00     0.190 HD
ATOM     42  C   UNL     1     -76.995 -13.948  99.054  1.00  0.00     0.066 C 
ENDBRANCH  34  36
ENDBRANCH  30  34
ENDBRANCH   4  27
TORSDOF 8
ENDMDL
MODEL 15
REMARK VINA RESULT:    -9.005      3.726     12.203
REMARK INTER + INTRA:         -14.083
REMARK INTER:                 -13.198
REMARK INTRA:                  -0.885
REMARK UNBOUND:                -0.866
REMARK SMILES CO[C@]1(C(=O)N[C@@H](C)c2ccc(-n3cc(F)cn3)nc2)CC[C@H](c2nc(C)cc(Nc3cc(C)[nH]n3)n2)CC1
REMARK SMILES IDX 3 1 21 2 22 3 23 4 38 5 39 6 2 7 1 8 4 9 5 10 6 11 7 13 8 14
REMARK SMILES IDX 9 15 10 16 20 17 11 18 19 19 12 20 13 21 14 22 18 23 15 24
REMARK SMILES IDX 17 25 16 26 24 27 37 28 25 29 29 30 26 31 28 32 27 33 30 34
REMARK SMILES IDX 31 36 36 37 32 38 35 39 33 40 34 42
REMARK H PARENT 6 12 30 35 35 41
REMARK Flexibility Score: inf
ROOT
ATOM      1  C   UNL     1     -74.579 -18.325  88.661  1.00  0.00     0.146 C 
ATOM      2  C   UNL     1     -75.474 -17.156  88.146  1.00  0.00     0.046 C 
ATOM      3  C   UNL     1     -76.797 -17.675  87.567  1.00  0.00     0.015 C 
ATOM      4  C   UNL     1     -76.547 -18.667  86.416  1.00  0.00     0.058 C 
ATOM      5  C   UNL     1     -75.610 -19.813  86.860  1.00  0.00     0.015 C 
ATOM      6  C   UNL     1     -74.307 -19.271  87.467  1.00  0.00     0.046 C 
ENDROOT
BRANCH   1   7
ATOM      7  O   UNL     1     -75.226 -19.099  89.676  1.00  0.00    -0.368 OA
ATOM      8  C   UNL     1     -75.610 -18.344  90.811  1.00  0.00     0.196 C 
ENDBRANCH   1   7
BRANCH   1   9
ATOM      9  C   UNL     1     -73.226 -17.822  89.145  1.00  0.00     0.252 C 
ATOM     10  O   UNL     1     -72.371 -18.638  89.588  1.00  0.00    -0.272 OA
ATOM     11  N   UNL     1     -72.945 -16.410  89.159  1.00  0.00    -0.347 N 
ATOM     12  H   UNL     1     -73.696 -15.747  88.852  1.00  0.00     0.164 HD
BRANCH  11  13
ATOM     13  C   UNL     1     -71.650 -15.851  89.566  1.00  0.00     0.111 C 
ATOM     14  C   UNL     1     -71.021 -15.102  88.391  1.00  0.00     0.036 C 
BRANCH  13  15
ATOM     15  C   UNL     1     -71.794 -14.932  90.765  1.00  0.00    -0.007 A 
ATOM     16  C   UNL     1     -72.944 -14.935  91.577  1.00  0.00     0.011 A 
ATOM     17  C   UNL     1     -70.807 -13.962  91.019  1.00  0.00     0.119 A 
ATOM     18  C   UNL     1     -73.069 -14.016  92.623  1.00  0.00     0.049 A 
ATOM     19  N   UNL     1     -70.959 -13.069  92.032  1.00  0.00    -0.237 NA
ATOM     20  C   UNL     1     -72.053 -13.067  92.845  1.00  0.00     0.153 A 
BRANCH  20  21
ATOM     21  N   UNL     1     -72.148 -12.075  93.884  1.00  0.00    -0.220 N 
ATOM     22  C   UNL     1     -72.195 -12.284  95.220  1.00  0.00     0.156 A 
ATOM     23  N   UNL     1     -72.225 -10.773  93.636  1.00  0.00    -0.172 NA
ATOM     24  C   UNL     1     -72.301 -11.055  95.832  1.00  0.00     0.161 A 
ATOM     25  C   UNL     1     -72.318 -10.126  94.814  1.00  0.00     0.174 A 
ATOM     26  F   UNL     1     -72.382 -10.811  97.163  1.00  0.00    -0.204 F 
ENDBRANCH  20  21
ENDBRANCH  13  15
ENDBRANCH  11  13
ENDBRANCH   1   9
BRANCH   4  27
ATOM     27  C   UNL     1     -77.868 -19.193  85.922  1.00  0.00     0.134 A 
ATOM     28  N   UNL     1     -78.651 -19.959  86.732  1.00  0.00    -0.215 NA
ATOM     29  N   UNL     1     -78.344 -18.797  84.710  1.00  0.00    -0.238 NA
ATOM     30  C   UNL     1     -79.896 -20.350  86.357  1.00  0.00     0.135 A 
ATOM     31  C   UNL     1     -79.576 -19.176  84.279  1.00  0.00     0.043 A 
ATOM     32  C   UNL     1     -80.384 -19.970  85.101  1.00  0.00     0.070 A 
ATOM     33  C   UNL     1     -80.059 -18.737  82.936  1.00  0.00     0.067 C 
BRANCH  30  34
ATOM     34  N   UNL     1     -80.653 -21.200  87.230  1.00  0.00    -0.323 N 
ATOM     35  H   UNL     1     -80.139 -21.935  87.756  1.00  0.00     0.170 HD
BRANCH  34  36
ATOM     36  C   UNL     1     -82.065 -21.073  87.451  1.00  0.00     0.153 A 
ATOM     37  N   UNL     1     -82.783 -20.018  87.015  1.00  0.00    -0.158 NA
ATOM     38  C   UNL     1     -82.899 -22.017  88.035  1.00  0.00     0.071 A 
ATOM     39  N   UNL     1     -84.051 -20.253  87.317  1.00  0.00    -0.281 N 
ATOM     40  C   UNL     1     -84.154 -21.451  87.925  1.00  0.00     0.034 A 
ATOM     41  H   UNL     1     -84.839 -19.616  87.076  1.00  0.00     0.190 HD
ATOM     42  C   UNL     1     -85.435 -22.051  88.413  1.00  0.00     0.066 C 
ENDBRANCH  34  36
ENDBRANCH  30  34
ENDBRANCH   4  27
TORSDOF 8
ENDMDL
