MODEL 1
REMARK VINA RESULT:    -8.637      0.000      0.000
REMARK INTER + INTRA:         -13.775
REMARK INTER:                 -12.676
REMARK INTRA:                  -1.099
REMARK UNBOUND:                -1.099
REMARK SMILES CO[C@]1(C(=O)N[C@@H](C)c2ccc(-n3cc(F)cn3)nc2)CC[C@H](c2nc(C)cc(Nc3cc(C)[nH]n3)n2)CC1
REMARK SMILES IDX 3 1 21 2 22 3 23 4 38 5 39 6 2 7 1 8 4 9 5 10 6 11 7 13 8 14
REMARK SMILES IDX 9 15 10 16 20 17 11 18 19 19 12 20 13 21 14 22 18 23 15 24
REMARK SMILES IDX 17 25 16 26 24 27 37 28 25 29 29 30 26 31 28 32 27 33 30 34
REMARK SMILES IDX 31 36 36 37 32 38 35 39 33 40 34 42
REMARK H PARENT 6 12 30 35 35 41
REMARK Flexibility Score: inf
ROOT
ATOM      1  C   UNL     1      29.297  24.236   7.652  1.00  0.00     0.146 C 
ATOM      2  C   UNL     1      30.805  24.369   8.029  1.00  0.00     0.046 C 
ATOM      3  C   UNL     1      31.328  25.786   7.756  1.00  0.00     0.015 C 
ATOM      4  C   UNL     1      31.140  26.171   6.277  1.00  0.00     0.058 C 
ATOM      5  C   UNL     1      29.669  25.993   5.836  1.00  0.00     0.015 C 
ATOM      6  C   UNL     1      29.156  24.579   6.149  1.00  0.00     0.046 C 
ENDROOT
BRANCH   1   7
ATOM      7  O   UNL     1      28.472  25.154   8.376  1.00  0.00    -0.368 OA
ATOM      8  C   UNL     1      27.125  25.175   7.941  1.00  0.00     0.196 C 
ENDBRANCH   1   7
BRANCH   1   9
ATOM      9  C   UNL     1      28.801  22.807   7.828  1.00  0.00     0.252 C 
ATOM     10  O   UNL     1      28.194  22.229   6.886  1.00  0.00    -0.272 OA
ATOM     11  N   UNL     1      28.966  22.139   9.092  1.00  0.00    -0.347 N 
ATOM     12  H   UNL     1      29.411  22.664   9.883  1.00  0.00     0.164 HD
BRANCH  11  13
ATOM     13  C   UNL     1      28.557  20.748   9.328  1.00  0.00     0.111 C 
ATOM     14  C   UNL     1      29.582  20.056  10.227  1.00  0.00     0.036 C 
BRANCH  13  15
ATOM     15  C   UNL     1      27.173  20.673   9.944  1.00  0.00    -0.007 A 
ATOM     16  C   UNL     1      26.615  21.744  10.667  1.00  0.00     0.011 A 
ATOM     17  C   UNL     1      26.458  19.462   9.899  1.00  0.00     0.119 A 
ATOM     18  C   UNL     1      25.371  21.604  11.286  1.00  0.00     0.049 A 
ATOM     19  N   UNL     1      25.256  19.344  10.523  1.00  0.00    -0.237 NA
ATOM     20  C   UNL     1      24.687  20.374  11.209  1.00  0.00     0.153 A 
BRANCH  20  21
ATOM     21  N   UNL     1      23.420  20.165  11.859  1.00  0.00    -0.220 N 
ATOM     22  C   UNL     1      23.204  19.733  13.123  1.00  0.00     0.156 A 
ATOM     23  N   UNL     1      22.255  20.364  11.254  1.00  0.00    -0.172 NA
ATOM     24  C   UNL     1      21.842  19.664  13.316  1.00  0.00     0.161 A 
ATOM     25  C   UNL     1      21.272  20.065  12.126  1.00  0.00     0.174 A 
ATOM     26  F   UNL     1      21.196  19.273  14.441  1.00  0.00    -0.204 F 
ENDBRANCH  20  21
ENDBRANCH  13  15
ENDBRANCH  11  13
ENDBRANCH   1   9
BRANCH   4  27
ATOM     27  C   UNL     1      31.612  27.586   6.071  1.00  0.00     0.134 A 
ATOM     28  N   UNL     1      30.772  28.632   6.305  1.00  0.00    -0.215 NA
ATOM     29  N   UNL     1      32.918  27.828   5.777  1.00  0.00    -0.238 NA
ATOM     30  C   UNL     1      31.202  29.919   6.240  1.00  0.00     0.135 A 
ATOM     31  C   UNL     1      33.395  29.097   5.682  1.00  0.00     0.043 A 
ATOM     32  C   UNL     1      32.537  30.179   5.912  1.00  0.00     0.070 A 
ATOM     33  C   UNL     1      34.830  29.326   5.340  1.00  0.00     0.067 C 
BRANCH  30  34
ATOM     34  N   UNL     1      30.259  30.981   6.444  1.00  0.00    -0.323 N 
ATOM     35  H   UNL     1      29.718  30.985   7.332  1.00  0.00     0.170 HD
BRANCH  34  36
ATOM     36  C   UNL     1      30.048  32.057   5.518  1.00  0.00     0.153 A 
ATOM     37  N   UNL     1      29.515  31.876   4.293  1.00  0.00    -0.158 NA
ATOM     38  C   UNL     1      30.257  33.408   5.761  1.00  0.00     0.071 A 
ATOM     39  N   UNL     1      29.390  33.073   3.738  1.00  0.00    -0.281 N 
ATOM     40  C   UNL     1      29.822  34.015   4.600  1.00  0.00     0.034 A 
ATOM     41  H   UNL     1      28.982  33.242   2.795  1.00  0.00     0.190 HD
ATOM     42  C   UNL     1      29.835  35.484   4.316  1.00  0.00     0.066 C 
ENDBRANCH  34  36
ENDBRANCH  30  34
ENDBRANCH   4  27
TORSDOF 8
ENDMDL
MODEL 2
REMARK VINA RESULT:    -8.594      3.927      5.641
REMARK INTER + INTRA:         -13.712
REMARK INTER:                 -12.591
REMARK INTRA:                  -1.122
REMARK UNBOUND:                -1.099
REMARK SMILES CO[C@]1(C(=O)N[C@@H](C)c2ccc(-n3cc(F)cn3)nc2)CC[C@H](c2nc(C)cc(Nc3cc(C)[nH]n3)n2)CC1
REMARK SMILES IDX 3 1 21 2 22 3 23 4 38 5 39 6 2 7 1 8 4 9 5 10 6 11 7 13 8 14
REMARK SMILES IDX 9 15 10 16 20 17 11 18 19 19 12 20 13 21 14 22 18 23 15 24
REMARK SMILES IDX 17 25 16 26 24 27 37 28 25 29 29 30 26 31 28 32 27 33 30 34
REMARK SMILES IDX 31 36 36 37 32 38 35 39 33 40 34 42
REMARK H PARENT 6 12 30 35 35 41
REMARK Flexibility Score: inf
ROOT
ATOM      1  C   UNL     1      29.141  24.921   8.241  1.00  0.00     0.146 C 
ATOM      2  C   UNL     1      29.603  23.456   8.513  1.00  0.00     0.046 C 
ATOM      3  C   UNL     1      30.625  22.987   7.470  1.00  0.00     0.015 C 
ATOM      4  C   UNL     1      30.045  23.079   6.046  1.00  0.00     0.058 C 
ATOM      5  C   UNL     1      29.515  24.500   5.750  1.00  0.00     0.015 C 
ATOM      6  C   UNL     1      28.519  24.963   6.825  1.00  0.00     0.046 C 
ENDROOT
BRANCH   1   7
ATOM      7  O   UNL     1      30.233  25.846   8.252  1.00  0.00    -0.368 OA
ATOM      8  C   UNL     1      29.849  27.184   7.992  1.00  0.00     0.196 C 
ENDBRANCH   1   7
BRANCH   1   9
ATOM      9  C   UNL     1      28.055  25.355   9.216  1.00  0.00     0.252 C 
ATOM     10  O   UNL     1      28.304  25.418  10.451  1.00  0.00    -0.272 OA
ATOM     11  N   UNL     1      26.726  25.631   8.737  1.00  0.00    -0.347 N 
ATOM     12  H   UNL     1      26.525  25.505   7.716  1.00  0.00     0.164 HD
BRANCH  11  13
ATOM     13  C   UNL     1      25.638  26.100   9.604  1.00  0.00     0.111 C 
ATOM     14  C   UNL     1      24.737  27.060   8.827  1.00  0.00     0.036 C 
BRANCH  13  15
ATOM     15  C   UNL     1      24.829  24.941  10.155  1.00  0.00    -0.007 A 
ATOM     16  C   UNL     1      23.757  25.132  11.048  1.00  0.00     0.011 A 
ATOM     17  C   UNL     1      25.220  23.621   9.864  1.00  0.00     0.119 A 
ATOM     18  C   UNL     1      23.091  24.032  11.593  1.00  0.00     0.049 A 
ATOM     19  N   UNL     1      24.565  22.567  10.419  1.00  0.00    -0.237 NA
ATOM     20  C   UNL     1      23.512  22.728  11.268  1.00  0.00     0.153 A 
BRANCH  20  21
ATOM     21  N   UNL     1      22.884  21.561  11.830  1.00  0.00    -0.220 N 
ATOM     22  C   UNL     1      23.303  20.828  12.887  1.00  0.00     0.156 A 
ATOM     23  N   UNL     1      21.770  21.031  11.337  1.00  0.00    -0.172 NA
ATOM     24  C   UNL     1      22.407  19.797  13.064  1.00  0.00     0.161 A 
ATOM     25  C   UNL     1      21.457  19.949  12.076  1.00  0.00     0.174 A 
ATOM     26  F   UNL     1      22.457  18.826  14.008  1.00  0.00    -0.204 F 
ENDBRANCH  20  21
ENDBRANCH  13  15
ENDBRANCH  11  13
ENDBRANCH   1   9
BRANCH   4  27
ATOM     27  C   UNL     1      31.102  22.666   5.055  1.00  0.00     0.134 A 
ATOM     28  N   UNL     1      32.341  23.231   5.095  1.00  0.00    -0.215 NA
ATOM     29  N   UNL     1      30.862  21.635   4.201  1.00  0.00    -0.238 NA
ATOM     30  C   UNL     1      33.347  22.798   4.292  1.00  0.00     0.135 A 
ATOM     31  C   UNL     1      31.829  21.175   3.364  1.00  0.00     0.043 A 
ATOM     32  C   UNL     1      33.103  21.755   3.390  1.00  0.00     0.070 A 
ATOM     33  C   UNL     1      31.527  20.053   2.427  1.00  0.00     0.067 C 
BRANCH  30  34
ATOM     34  N   UNL     1      34.615  23.466   4.340  1.00  0.00    -0.323 N 
ATOM     35  H   UNL     1      35.467  22.880   4.453  1.00  0.00     0.170 HD
BRANCH  34  36
ATOM     36  C   UNL     1      34.783  24.884   4.201  1.00  0.00     0.153 A 
ATOM     37  N   UNL     1      35.169  25.467   3.048  1.00  0.00    -0.158 NA
ATOM     38  C   UNL     1      34.493  25.848   5.157  1.00  0.00     0.071 A 
ATOM     39  N   UNL     1      35.149  26.777   3.243  1.00  0.00    -0.281 N 
ATOM     40  C   UNL     1      34.740  27.037   4.501  1.00  0.00     0.034 A 
ATOM     41  H   UNL     1      35.379  27.482   2.512  1.00  0.00     0.190 HD
ATOM     42  C   UNL     1      34.598  28.409   5.082  1.00  0.00     0.066 C 
ENDBRANCH  34  36
ENDBRANCH  30  34
ENDBRANCH   4  27
TORSDOF 8
ENDMDL
MODEL 3
REMARK VINA RESULT:    -8.522      4.212     12.435
REMARK INTER + INTRA:         -13.607
REMARK INTER:                 -12.349
REMARK INTRA:                  -1.258
REMARK UNBOUND:                -1.099
REMARK SMILES CO[C@]1(C(=O)N[C@@H](C)c2ccc(-n3cc(F)cn3)nc2)CC[C@H](c2nc(C)cc(Nc3cc(C)[nH]n3)n2)CC1
REMARK SMILES IDX 3 1 21 2 22 3 23 4 38 5 39 6 2 7 1 8 4 9 5 10 6 11 7 13 8 14
REMARK SMILES IDX 9 15 10 16 20 17 11 18 19 19 12 20 13 21 14 22 18 23 15 24
REMARK SMILES IDX 17 25 16 26 24 27 37 28 25 29 29 30 26 31 28 32 27 33 30 34
REMARK SMILES IDX 31 36 36 37 32 38 35 39 33 40 34 42
REMARK H PARENT 6 12 30 35 35 41
REMARK Flexibility Score: inf
ROOT
ATOM      1  C   UNL     1      28.008  21.822   8.649  1.00  0.00     0.146 C 
ATOM      2  C   UNL     1      27.940  21.708  10.203  1.00  0.00     0.046 C 
ATOM      3  C   UNL     1      26.491  21.731  10.705  1.00  0.00     0.015 C 
ATOM      4  C   UNL     1      25.771  23.017  10.261  1.00  0.00     0.058 C 
ATOM      5  C   UNL     1      25.865  23.209   8.730  1.00  0.00     0.015 C 
ATOM      6  C   UNL     1      27.322  23.149   8.245  1.00  0.00     0.046 C 
ENDROOT
BRANCH   1   7
ATOM      7  O   UNL     1      27.301  20.763   7.995  1.00  0.00    -0.368 OA
ATOM      8  C   UNL     1      27.689  19.470   8.422  1.00  0.00     0.196 C 
ENDBRANCH   1   7
BRANCH   1   9
ATOM      9  C   UNL     1      29.446  21.898   8.155  1.00  0.00     0.252 C 
ATOM     10  O   UNL     1      30.392  21.549   8.913  1.00  0.00    -0.272 OA
ATOM     11  N   UNL     1      29.732  22.430   6.849  1.00  0.00    -0.347 N 
ATOM     12  H   UNL     1      28.935  22.779   6.265  1.00  0.00     0.164 HD
BRANCH  11  13
ATOM     13  C   UNL     1      31.085  22.493   6.283  1.00  0.00     0.111 C 
ATOM     14  C   UNL     1      31.098  21.829   4.906  1.00  0.00     0.036 C 
BRANCH  13  15
ATOM     15  C   UNL     1      31.581  23.924   6.187  1.00  0.00    -0.007 A 
ATOM     16  C   UNL     1      30.769  25.022   6.526  1.00  0.00     0.011 A 
ATOM     17  C   UNL     1      32.850  24.183   5.638  1.00  0.00     0.119 A 
ATOM     18  C   UNL     1      31.239  26.326   6.346  1.00  0.00     0.049 A 
ATOM     19  N   UNL     1      33.279  25.460   5.458  1.00  0.00    -0.237 NA
ATOM     20  C   UNL     1      32.519  26.538   5.799  1.00  0.00     0.153 A 
BRANCH  20  21
ATOM     21  N   UNL     1      33.036  27.861   5.559  1.00  0.00    -0.220 N 
ATOM     22  C   UNL     1      33.976  28.227   4.657  1.00  0.00     0.156 A 
ATOM     23  N   UNL     1      32.642  28.927   6.247  1.00  0.00    -0.172 NA
ATOM     24  C   UNL     1      34.173  29.584   4.785  1.00  0.00     0.161 A 
ATOM     25  C   UNL     1      33.323  29.996   5.790  1.00  0.00     0.174 A 
ATOM     26  F   UNL     1      35.033  30.354   4.075  1.00  0.00    -0.204 F 
ENDBRANCH  20  21
ENDBRANCH  13  15
ENDBRANCH  11  13
ENDBRANCH   1   9
BRANCH   4  27
ATOM     27  C   UNL     1      24.339  22.967  10.724  1.00  0.00     0.134 A 
ATOM     28  N   UNL     1      23.741  21.772  10.986  1.00  0.00    -0.215 NA
ATOM     29  N   UNL     1      23.679  24.122  11.007  1.00  0.00    -0.238 NA
ATOM     30  C   UNL     1      22.492  21.700  11.515  1.00  0.00     0.135 A 
ATOM     31  C   UNL     1      22.420  24.107  11.520  1.00  0.00     0.043 A 
ATOM     32  C   UNL     1      21.794  22.883  11.785  1.00  0.00     0.070 A 
ATOM     33  C   UNL     1      21.719  25.394  11.804  1.00  0.00     0.067 C 
BRANCH  30  34
ATOM     34  N   UNL     1      21.894  20.413  11.719  1.00  0.00    -0.323 N 
ATOM     35  H   UNL     1      21.373  19.989  10.925  1.00  0.00     0.170 HD
BRANCH  34  36
ATOM     36  C   UNL     1      22.003  19.659  12.935  1.00  0.00     0.153 A 
ATOM     37  N   UNL     1      23.164  19.514  13.605  1.00  0.00    -0.158 NA
ATOM     38  C   UNL     1      20.962  19.068  13.638  1.00  0.00     0.071 A 
ATOM     39  N   UNL     1      22.898  18.833  14.710  1.00  0.00    -0.281 N 
ATOM     40  C   UNL     1      21.580  18.557  14.762  1.00  0.00     0.034 A 
ATOM     41  H   UNL     1      23.606  18.593  15.436  1.00  0.00     0.190 HD
ATOM     42  C   UNL     1      20.912  17.797  15.865  1.00  0.00     0.066 C 
ENDBRANCH  34  36
ENDBRANCH  30  34
ENDBRANCH   4  27
TORSDOF 8
ENDMDL
MODEL 4
REMARK VINA RESULT:    -8.431      5.186     13.763
REMARK INTER + INTRA:         -13.474
REMARK INTER:                 -12.405
REMARK INTRA:                  -1.069
REMARK UNBOUND:                -1.099
REMARK SMILES CO[C@]1(C(=O)N[C@@H](C)c2ccc(-n3cc(F)cn3)nc2)CC[C@H](c2nc(C)cc(Nc3cc(C)[nH]n3)n2)CC1
REMARK SMILES IDX 3 1 21 2 22 3 23 4 38 5 39 6 2 7 1 8 4 9 5 10 6 11 7 13 8 14
REMARK SMILES IDX 9 15 10 16 20 17 11 18 19 19 12 20 13 21 14 22 18 23 15 24
REMARK SMILES IDX 17 25 16 26 24 27 37 28 25 29 29 30 26 31 28 32 27 33 30 34
REMARK SMILES IDX 31 36 36 37 32 38 35 39 33 40 34 42
REMARK H PARENT 6 12 30 35 35 41
REMARK Flexibility Score: inf
ROOT
ATOM      1  C   UNL     1      25.854  22.300  10.173  1.00  0.00     0.146 C 
ATOM      2  C   UNL     1      24.578  22.957  10.784  1.00  0.00     0.046 C 
ATOM      3  C   UNL     1      24.144  22.248  12.073  1.00  0.00     0.015 C 
ATOM      4  C   UNL     1      23.872  20.753  11.820  1.00  0.00     0.058 C 
ATOM      5  C   UNL     1      25.089  20.070  11.155  1.00  0.00     0.015 C 
ATOM      6  C   UNL     1      25.527  20.815   9.885  1.00  0.00     0.046 C 
ENDROOT
BRANCH   1   7
ATOM      7  O   UNL     1      26.963  22.321  11.079  1.00  0.00    -0.368 OA
ATOM      8  C   UNL     1      28.165  21.823  10.519  1.00  0.00     0.196 C 
ENDBRANCH   1   7
BRANCH   1   9
ATOM      9  C   UNL     1      26.230  22.938   8.843  1.00  0.00     0.252 C 
ATOM     10  O   UNL     1      26.108  22.282   7.772  1.00  0.00    -0.272 OA
ATOM     11  N   UNL     1      26.786  24.265   8.812  1.00  0.00    -0.347 N 
ATOM     12  H   UNL     1      26.943  24.763   9.720  1.00  0.00     0.164 HD
BRANCH  11  13
ATOM     13  C   UNL     1      27.130  24.966   7.568  1.00  0.00     0.111 C 
ATOM     14  C   UNL     1      26.964  26.473   7.765  1.00  0.00     0.036 C 
BRANCH  13  15
ATOM     15  C   UNL     1      28.542  24.642   7.120  1.00  0.00    -0.007 A 
ATOM     16  C   UNL     1      29.674  25.199   7.745  1.00  0.00     0.011 A 
ATOM     17  C   UNL     1      28.742  23.850   5.975  1.00  0.00     0.119 A 
ATOM     18  C   UNL     1      30.953  24.937   7.249  1.00  0.00     0.049 A 
ATOM     19  N   UNL     1      29.996  23.621   5.502  1.00  0.00    -0.237 NA
ATOM     20  C   UNL     1      31.106  24.133   6.103  1.00  0.00     0.153 A 
BRANCH  20  21
ATOM     21  N   UNL     1      32.399  23.861   5.529  1.00  0.00    -0.220 N 
ATOM     22  C   UNL     1      32.764  22.785   4.794  1.00  0.00     0.156 A 
ATOM     23  N   UNL     1      33.441  24.669   5.681  1.00  0.00    -0.172 NA
ATOM     24  C   UNL     1      34.094  22.933   4.468  1.00  0.00     0.161 A 
ATOM     25  C   UNL     1      34.493  24.123   5.039  1.00  0.00     0.174 A 
ATOM     26  F   UNL     1      34.856  22.077   3.744  1.00  0.00    -0.204 F 
ENDBRANCH  20  21
ENDBRANCH  13  15
ENDBRANCH  11  13
ENDBRANCH   1   9
BRANCH   4  27
ATOM     27  C   UNL     1      23.509  20.090  13.122  1.00  0.00     0.134 A 
ATOM     28  N   UNL     1      22.332  19.416  13.246  1.00  0.00    -0.215 NA
ATOM     29  N   UNL     1      24.414  20.051  14.136  1.00  0.00    -0.238 NA
ATOM     30  C   UNL     1      22.030  18.711  14.367  1.00  0.00     0.135 A 
ATOM     31  C   UNL     1      24.154  19.375  15.287  1.00  0.00     0.043 A 
ATOM     32  C   UNL     1      22.944  18.687  15.428  1.00  0.00     0.070 A 
ATOM     33  C   UNL     1      25.164  19.367  16.387  1.00  0.00     0.067 C 
BRANCH  30  34
ATOM     34  N   UNL     1      20.753  18.066  14.463  1.00  0.00    -0.323 N 
ATOM     35  H   UNL     1      20.038  18.297  13.744  1.00  0.00     0.170 HD
BRANCH  34  36
ATOM     36  C   UNL     1      20.416  17.093  15.463  1.00  0.00     0.153 A 
ATOM     37  N   UNL     1      20.815  15.806  15.397  1.00  0.00    -0.158 NA
ATOM     38  C   UNL     1      19.742  17.330  16.653  1.00  0.00     0.071 A 
ATOM     39  N   UNL     1      20.402  15.209  16.505  1.00  0.00    -0.281 N 
ATOM     40  C   UNL     1      19.759  16.102  17.284  1.00  0.00     0.034 A 
ATOM     41  H   UNL     1      20.590  14.212  16.739  1.00  0.00     0.190 HD
ATOM     42  C   UNL     1      19.150  15.787  18.614  1.00  0.00     0.066 C 
ENDBRANCH  34  36
ENDBRANCH  30  34
ENDBRANCH   4  27
TORSDOF 8
ENDMDL
MODEL 5
REMARK VINA RESULT:    -8.406      5.277     12.859
REMARK INTER + INTRA:         -13.437
REMARK INTER:                 -12.238
REMARK INTRA:                  -1.198
REMARK UNBOUND:                -1.099
REMARK SMILES CO[C@]1(C(=O)N[C@@H](C)c2ccc(-n3cc(F)cn3)nc2)CC[C@H](c2nc(C)cc(Nc3cc(C)[nH]n3)n2)CC1
REMARK SMILES IDX 3 1 21 2 22 3 23 4 38 5 39 6 2 7 1 8 4 9 5 10 6 11 7 13 8 14
REMARK SMILES IDX 9 15 10 16 20 17 11 18 19 19 12 20 13 21 14 22 18 23 15 24
REMARK SMILES IDX 17 25 16 26 24 27 37 28 25 29 29 30 26 31 28 32 27 33 30 34
REMARK SMILES IDX 31 36 36 37 32 38 35 39 33 40 34 42
REMARK H PARENT 6 12 30 35 35 41
REMARK Flexibility Score: inf
ROOT
ATOM      1  C   UNL     1      26.155  22.058  10.147  1.00  0.00     0.146 C 
ATOM      2  C   UNL     1      24.984  22.800  10.862  1.00  0.00     0.046 C 
ATOM      3  C   UNL     1      24.644  22.146  12.208  1.00  0.00     0.015 C 
ATOM      4  C   UNL     1      24.268  20.664  12.025  1.00  0.00     0.058 C 
ATOM      5  C   UNL     1      25.374  19.898  11.263  1.00  0.00     0.015 C 
ATOM      6  C   UNL     1      25.721  20.588   9.935  1.00  0.00     0.046 C 
ENDROOT
BRANCH   1   7
ATOM      7  O   UNL     1      27.348  22.038  10.937  1.00  0.00    -0.368 OA
ATOM      8  C   UNL     1      28.464  21.474  10.271  1.00  0.00     0.196 C 
ENDBRANCH   1   7
BRANCH   1   9
ATOM      9  C   UNL     1      26.429  22.643   8.769  1.00  0.00     0.252 C 
ATOM     10  O   UNL     1      26.245  21.941   7.737  1.00  0.00    -0.272 OA
ATOM     11  N   UNL     1      26.961  23.975   8.644  1.00  0.00    -0.347 N 
ATOM     12  H   UNL     1      27.171  24.514   9.517  1.00  0.00     0.164 HD
BRANCH  11  13
ATOM     13  C   UNL     1      27.207  24.627   7.351  1.00  0.00     0.111 C 
ATOM     14  C   UNL     1      26.927  26.125   7.469  1.00  0.00     0.036 C 
BRANCH  13  15
ATOM     15  C   UNL     1      28.626  24.388   6.871  1.00  0.00    -0.007 A 
ATOM     16  C   UNL     1      29.685  25.254   7.202  1.00  0.00     0.011 A 
ATOM     17  C   UNL     1      28.888  23.336   5.974  1.00  0.00     0.119 A 
ATOM     18  C   UNL     1      30.960  25.041   6.673  1.00  0.00     0.049 A 
ATOM     19  N   UNL     1      30.133  23.159   5.460  1.00  0.00    -0.237 NA
ATOM     20  C   UNL     1      31.178  23.972   5.783  1.00  0.00     0.153 A 
BRANCH  20  21
ATOM     21  N   UNL     1      32.463  23.730   5.180  1.00  0.00    -0.220 N 
ATOM     22  C   UNL     1      32.792  22.751   4.306  1.00  0.00     0.156 A 
ATOM     23  N   UNL     1      33.535  24.469   5.443  1.00  0.00    -0.172 NA
ATOM     24  C   UNL     1      34.129  22.889   4.006  1.00  0.00     0.161 A 
ATOM     25  C   UNL     1      34.569  23.974   4.734  1.00  0.00     0.174 A 
ATOM     26  F   UNL     1      34.863  22.111   3.174  1.00  0.00    -0.204 F 
ENDBRANCH  20  21
ENDBRANCH  13  15
ENDBRANCH  11  13
ENDBRANCH   1   9
BRANCH   4  27
ATOM     27  C   UNL     1      24.003  20.051  13.375  1.00  0.00     0.134 A 
ATOM     28  N   UNL     1      24.786  20.370  14.442  1.00  0.00    -0.215 NA
ATOM     29  N   UNL     1      22.899  19.278  13.561  1.00  0.00    -0.238 NA
ATOM     30  C   UNL     1      24.501  19.926  15.693  1.00  0.00     0.135 A 
ATOM     31  C   UNL     1      22.578  18.792  14.789  1.00  0.00     0.043 A 
ATOM     32  C   UNL     1      23.383  19.107  15.891  1.00  0.00     0.070 A 
ATOM     33  C   UNL     1      21.369  17.933  14.955  1.00  0.00     0.067 C 
BRANCH  30  34
ATOM     34  N   UNL     1      25.393  20.250  16.769  1.00  0.00    -0.323 N 
ATOM     35  H   UNL     1      25.141  21.051  17.382  1.00  0.00     0.170 HD
BRANCH  34  36
ATOM     36  C   UNL     1      26.585  19.513  17.076  1.00  0.00     0.153 A 
ATOM     37  N   UNL     1      26.655  18.168  17.001  1.00  0.00    -0.158 NA
ATOM     38  C   UNL     1      27.829  20.045  17.388  1.00  0.00     0.071 A 
ATOM     39  N   UNL     1      27.905  17.824  17.271  1.00  0.00    -0.281 N 
ATOM     40  C   UNL     1      28.637  18.932  17.501  1.00  0.00     0.034 A 
ATOM     41  H   UNL     1      28.258  16.844  17.262  1.00  0.00     0.190 HD
ATOM     42  C   UNL     1      30.094  18.933  17.843  1.00  0.00     0.066 C 
ENDBRANCH  34  36
ENDBRANCH  30  34
ENDBRANCH   4  27
TORSDOF 8
ENDMDL
MODEL 6
REMARK VINA RESULT:    -8.393      2.146      4.566
REMARK INTER + INTRA:         -13.418
REMARK INTER:                 -12.880
REMARK INTRA:                  -0.537
REMARK UNBOUND:                -1.099
REMARK SMILES CO[C@]1(C(=O)N[C@@H](C)c2ccc(-n3cc(F)cn3)nc2)CC[C@H](c2nc(C)cc(Nc3cc(C)[nH]n3)n2)CC1
REMARK SMILES IDX 3 1 21 2 22 3 23 4 38 5 39 6 2 7 1 8 4 9 5 10 6 11 7 13 8 14
REMARK SMILES IDX 9 15 10 16 20 17 11 18 19 19 12 20 13 21 14 22 18 23 15 24
REMARK SMILES IDX 17 25 16 26 24 27 37 28 25 29 29 30 26 31 28 32 27 33 30 34
REMARK SMILES IDX 31 36 36 37 32 38 35 39 33 40 34 42
REMARK H PARENT 6 12 30 35 35 41
REMARK Flexibility Score: inf
ROOT
ATOM      1  C   UNL     1      29.578  23.100   7.362  1.00  0.00     0.146 C 
ATOM      2  C   UNL     1      28.884  24.049   6.337  1.00  0.00     0.046 C 
ATOM      3  C   UNL     1      29.792  25.226   5.958  1.00  0.00     0.015 C 
ATOM      4  C   UNL     1      30.198  26.036   7.203  1.00  0.00     0.058 C 
ATOM      5  C   UNL     1      30.834  25.126   8.278  1.00  0.00     0.015 C 
ATOM      6  C   UNL     1      29.924  23.936   8.618  1.00  0.00     0.046 C 
ENDROOT
BRANCH   1   7
ATOM      7  O   UNL     1      30.805  22.562   6.860  1.00  0.00    -0.368 OA
ATOM      8  C   UNL     1      30.731  22.134   5.512  1.00  0.00     0.196 C 
ENDBRANCH   1   7
BRANCH   1   9
ATOM      9  C   UNL     1      28.644  21.986   7.814  1.00  0.00     0.252 C 
ATOM     10  O   UNL     1      27.501  21.870   7.293  1.00  0.00    -0.272 OA
ATOM     11  N   UNL     1      29.038  21.104   8.882  1.00  0.00    -0.347 N 
ATOM     12  H   UNL     1      29.964  21.264   9.347  1.00  0.00     0.164 HD
BRANCH  11  13
ATOM     13  C   UNL     1      28.215  19.979   9.343  1.00  0.00     0.111 C 
ATOM     14  C   UNL     1      28.994  19.161  10.374  1.00  0.00     0.036 C 
BRANCH  13  15
ATOM     15  C   UNL     1      26.899  20.456   9.928  1.00  0.00    -0.007 A 
ATOM     16  C   UNL     1      26.802  21.634  10.691  1.00  0.00     0.011 A 
ATOM     17  C   UNL     1      25.754  19.648   9.808  1.00  0.00     0.119 A 
ATOM     18  C   UNL     1      25.586  21.994  11.278  1.00  0.00     0.049 A 
ATOM     19  N   UNL     1      24.586  20.012  10.401  1.00  0.00    -0.237 NA
ATOM     20  C   UNL     1      24.463  21.158  11.127  1.00  0.00     0.153 A 
BRANCH  20  21
ATOM     21  N   UNL     1      23.197  21.463  11.741  1.00  0.00    -0.220 N 
ATOM     22  C   UNL     1      22.228  20.593  12.108  1.00  0.00     0.156 A 
ATOM     23  N   UNL     1      22.806  22.703  12.014  1.00  0.00    -0.172 NA
ATOM     24  C   UNL     1      21.189  21.323  12.640  1.00  0.00     0.161 A 
ATOM     25  C   UNL     1      21.579  22.644  12.567  1.00  0.00     0.174 A 
ATOM     26  F   UNL     1      20.018  20.842  13.124  1.00  0.00    -0.204 F 
ENDBRANCH  20  21
ENDBRANCH  13  15
ENDBRANCH  11  13
ENDBRANCH   1   9
BRANCH   4  27
ATOM     27  C   UNL     1      31.134  27.141   6.790  1.00  0.00     0.134 A 
ATOM     28  N   UNL     1      32.252  26.861   6.065  1.00  0.00    -0.215 NA
ATOM     29  N   UNL     1      30.797  28.437   7.029  1.00  0.00    -0.238 NA
ATOM     30  C   UNL     1      33.052  27.846   5.580  1.00  0.00     0.135 A 
ATOM     31  C   UNL     1      31.572  29.460   6.581  1.00  0.00     0.043 A 
ATOM     32  C   UNL     1      32.728  29.182   5.843  1.00  0.00     0.070 A 
ATOM     33  C   UNL     1      31.181  30.871   6.875  1.00  0.00     0.067 C 
BRANCH  30  34
ATOM     34  N   UNL     1      34.245  27.489   4.869  1.00  0.00    -0.323 N 
ATOM     35  H   UNL     1      34.985  28.213   4.771  1.00  0.00     0.170 HD
BRANCH  34  36
ATOM     36  C   UNL     1      34.497  26.187   4.322  1.00  0.00     0.153 A 
ATOM     37  N   UNL     1      35.160  25.994   3.164  1.00  0.00    -0.158 NA
ATOM     38  C   UNL     1      34.201  24.969   4.919  1.00  0.00     0.071 A 
ATOM     39  N   UNL     1      35.283  24.686   2.994  1.00  0.00    -0.281 N 
ATOM     40  C   UNL     1      34.722  24.043   4.037  1.00  0.00     0.034 A 
ATOM     41  H   UNL     1      35.776  24.243   2.191  1.00  0.00     0.190 HD
ATOM     42  C   UNL     1      34.667  22.555   4.189  1.00  0.00     0.066 C 
ENDBRANCH  34  36
ENDBRANCH  30  34
ENDBRANCH   4  27
TORSDOF 8
ENDMDL
MODEL 7
REMARK VINA RESULT:    -8.297      5.879     13.475
REMARK INTER + INTRA:         -13.276
REMARK INTER:                 -12.037
REMARK INTRA:                  -1.239
REMARK UNBOUND:                -1.099
REMARK SMILES CO[C@]1(C(=O)N[C@@H](C)c2ccc(-n3cc(F)cn3)nc2)CC[C@H](c2nc(C)cc(Nc3cc(C)[nH]n3)n2)CC1
REMARK SMILES IDX 3 1 21 2 22 3 23 4 38 5 39 6 2 7 1 8 4 9 5 10 6 11 7 13 8 14
REMARK SMILES IDX 9 15 10 16 20 17 11 18 19 19 12 20 13 21 14 22 18 23 15 24
REMARK SMILES IDX 17 25 16 26 24 27 37 28 25 29 29 30 26 31 28 32 27 33 30 34
REMARK SMILES IDX 31 36 36 37 32 38 35 39 33 40 34 42
REMARK H PARENT 6 12 30 35 35 41
REMARK Flexibility Score: inf
ROOT
ATOM      1  C   UNL     1      25.063  21.289  11.648  1.00  0.00     0.146 C 
ATOM      2  C   UNL     1      25.148  21.792  13.122  1.00  0.00     0.046 C 
ATOM      3  C   UNL     1      24.738  20.695  14.113  1.00  0.00     0.015 C 
ATOM      4  C   UNL     1      23.308  20.197  13.829  1.00  0.00     0.058 C 
ATOM      5  C   UNL     1      23.156  19.746  12.359  1.00  0.00     0.015 C 
ATOM      6  C   UNL     1      23.604  20.847  11.385  1.00  0.00     0.046 C 
ENDROOT
BRANCH   1   7
ATOM      7  O   UNL     1      25.900  20.152  11.413  1.00  0.00    -0.368 OA
ATOM      8  C   UNL     1      25.841  19.667  10.083  1.00  0.00     0.196 C 
ENDBRANCH   1   7
BRANCH   1   9
ATOM      9  C   UNL     1      25.375  22.403  10.658  1.00  0.00     0.252 C 
ATOM     10  O   UNL     1      24.461  22.868   9.923  1.00  0.00    -0.272 OA
ATOM     11  N   UNL     1      26.724  22.882  10.514  1.00  0.00    -0.347 N 
ATOM     12  H   UNL     1      27.479  22.433  11.086  1.00  0.00     0.164 HD
BRANCH  11  13
ATOM     13  C   UNL     1      27.097  23.984   9.617  1.00  0.00     0.111 C 
ATOM     14  C   UNL     1      27.329  25.255  10.434  1.00  0.00     0.036 C 
BRANCH  13  15
ATOM     15  C   UNL     1      28.330  23.643   8.803  1.00  0.00    -0.007 A 
ATOM     16  C   UNL     1      29.193  24.635   8.299  1.00  0.00     0.011 A 
ATOM     17  C   UNL     1      28.572  22.307   8.434  1.00  0.00     0.119 A 
ATOM     18  C   UNL     1      30.273  24.282   7.486  1.00  0.00     0.049 A 
ATOM     19  N   UNL     1      29.620  21.990   7.629  1.00  0.00    -0.237 NA
ATOM     20  C   UNL     1      30.480  22.930   7.148  1.00  0.00     0.153 A 
BRANCH  20  21
ATOM     21  N   UNL     1      31.556  22.516   6.285  1.00  0.00    -0.220 N 
ATOM     22  C   UNL     1      32.691  23.194   6.000  1.00  0.00     0.156 A 
ATOM     23  N   UNL     1      31.546  21.367   5.618  1.00  0.00    -0.172 NA
ATOM     24  C   UNL     1      33.425  22.430   5.120  1.00  0.00     0.161 A 
ATOM     25  C   UNL     1      32.682  21.291   4.897  1.00  0.00     0.174 A 
ATOM     26  F   UNL     1      34.627  22.742   4.576  1.00  0.00    -0.204 F 
ENDBRANCH  20  21
ENDBRANCH  13  15
ENDBRANCH  11  13
ENDBRANCH   1   9
BRANCH   4  27
ATOM     27  C   UNL     1      22.973  19.083  14.786  1.00  0.00     0.134 A 
ATOM     28  N   UNL     1      23.801  18.801  15.830  1.00  0.00    -0.215 NA
ATOM     29  N   UNL     1      21.778  18.442  14.685  1.00  0.00    -0.238 NA
ATOM     30  C   UNL     1      23.469  17.882  16.773  1.00  0.00     0.135 A 
ATOM     31  C   UNL     1      21.405  17.501  15.592  1.00  0.00     0.043 A 
ATOM     32  C   UNL     1      22.253  17.197  16.664  1.00  0.00     0.070 A 
ATOM     33  C   UNL     1      20.094  16.804  15.442  1.00  0.00     0.067 C 
BRANCH  30  34
ATOM     34  N   UNL     1      24.403  17.587  17.821  1.00  0.00    -0.323 N 
ATOM     35  H   UNL     1      24.022  17.271  18.735  1.00  0.00     0.170 HD
BRANCH  34  36
ATOM     36  C   UNL     1      25.828  17.663  17.672  1.00  0.00     0.153 A 
ATOM     37  N   UNL     1      26.577  16.624  17.249  1.00  0.00    -0.158 NA
ATOM     38  C   UNL     1      26.618  18.793  17.835  1.00  0.00     0.071 A 
ATOM     39  N   UNL     1      27.826  17.053  17.152  1.00  0.00    -0.281 N 
ATOM     40  C   UNL     1      27.882  18.356  17.491  1.00  0.00     0.034 A 
ATOM     41  H   UNL     1      28.623  16.469  16.823  1.00  0.00     0.190 HD
ATOM     42  C   UNL     1      29.131  19.180  17.504  1.00  0.00     0.066 C 
ENDBRANCH  34  36
ENDBRANCH  30  34
ENDBRANCH   4  27
TORSDOF 8
ENDMDL
MODEL 8
REMARK VINA RESULT:    -8.254      2.174      3.562
REMARK INTER + INTRA:         -13.213
REMARK INTER:                 -12.163
REMARK INTRA:                  -1.050
REMARK UNBOUND:                -1.099
REMARK SMILES CO[C@]1(C(=O)N[C@@H](C)c2ccc(-n3cc(F)cn3)nc2)CC[C@H](c2nc(C)cc(Nc3cc(C)[nH]n3)n2)CC1
REMARK SMILES IDX 3 1 21 2 22 3 23 4 38 5 39 6 2 7 1 8 4 9 5 10 6 11 7 13 8 14
REMARK SMILES IDX 9 15 10 16 20 17 11 18 19 19 12 20 13 21 14 22 18 23 15 24
REMARK SMILES IDX 17 25 16 26 24 27 37 28 25 29 29 30 26 31 28 32 27 33 30 34
REMARK SMILES IDX 31 36 36 37 32 38 35 39 33 40 34 42
REMARK H PARENT 6 12 30 35 35 41
REMARK Flexibility Score: inf
ROOT
ATOM      1  C   UNL     1      29.458  23.580   8.086  1.00  0.00     0.146 C 
ATOM      2  C   UNL     1      28.728  24.562   7.118  1.00  0.00     0.046 C 
ATOM      3  C   UNL     1      29.391  25.945   7.117  1.00  0.00     0.015 C 
ATOM      4  C   UNL     1      29.411  26.551   8.533  1.00  0.00     0.058 C 
ATOM      5  C   UNL     1      30.070  25.586   9.544  1.00  0.00     0.015 C 
ATOM      6  C   UNL     1      29.413  24.197   9.504  1.00  0.00     0.046 C 
ENDROOT
BRANCH   1   7
ATOM      7  O   UNL     1      30.837  23.405   7.744  1.00  0.00    -0.368 OA
ATOM      8  C   UNL     1      31.038  22.786   6.486  1.00  0.00     0.196 C 
ENDBRANCH   1   7
BRANCH   1   9
ATOM      9  C   UNL     1      28.745  22.237   8.163  1.00  0.00     0.252 C 
ATOM     10  O   UNL     1      27.899  21.921   7.283  1.00  0.00    -0.272 OA
ATOM     11  N   UNL     1      28.988  21.356   9.275  1.00  0.00    -0.347 N 
ATOM     12  H   UNL     1      29.643  21.671  10.030  1.00  0.00     0.164 HD
BRANCH  11  13
ATOM     13  C   UNL     1      28.376  20.027   9.398  1.00  0.00     0.111 C 
ATOM     14  C   UNL     1      29.282  19.119  10.231  1.00  0.00     0.036 C 
BRANCH  13  15
ATOM     15  C   UNL     1      26.993  20.107  10.015  1.00  0.00    -0.007 A 
ATOM     16  C   UNL     1      26.446  21.319  10.474  1.00  0.00     0.011 A 
ATOM     17  C   UNL     1      26.266  18.924  10.245  1.00  0.00     0.119 A 
ATOM     18  C   UNL     1      25.201  21.335  11.109  1.00  0.00     0.049 A 
ATOM     19  N   UNL     1      25.064  18.963  10.878  1.00  0.00    -0.237 NA
ATOM     20  C   UNL     1      24.506  20.127  11.312  1.00  0.00     0.153 A 
BRANCH  20  21
ATOM     21  N   UNL     1      23.238  20.082  11.993  1.00  0.00    -0.220 N 
ATOM     22  C   UNL     1      23.007  19.752  13.284  1.00  0.00     0.156 A 
ATOM     23  N   UNL     1      22.085  20.357  11.392  1.00  0.00    -0.172 NA
ATOM     24  C   UNL     1      21.649  19.829  13.500  1.00  0.00     0.161 A 
ATOM     25  C   UNL     1      21.096  20.210  12.296  1.00  0.00     0.174 A 
ATOM     26  F   UNL     1      20.991  19.572  14.656  1.00  0.00    -0.204 F 
ENDBRANCH  20  21
ENDBRANCH  13  15
ENDBRANCH  11  13
ENDBRANCH   1   9
BRANCH   4  27
ATOM     27  C   UNL     1      30.122  27.878   8.492  1.00  0.00     0.134 A 
ATOM     28  N   UNL     1      30.682  28.324   7.334  1.00  0.00    -0.215 NA
ATOM     29  N   UNL     1      30.094  28.694   9.581  1.00  0.00    -0.238 NA
ATOM     30  C   UNL     1      31.227  29.564   7.237  1.00  0.00     0.135 A 
ATOM     31  C   UNL     1      30.642  29.937   9.543  1.00  0.00     0.043 A 
ATOM     32  C   UNL     1      31.228  30.401   8.360  1.00  0.00     0.070 A 
ATOM     33  C   UNL     1      30.609  30.800  10.761  1.00  0.00     0.067 C 
BRANCH  30  34
ATOM     34  N   UNL     1      31.850  29.959   6.007  1.00  0.00    -0.323 N 
ATOM     35  H   UNL     1      31.514  30.833   5.553  1.00  0.00     0.170 HD
BRANCH  34  36
ATOM     36  C   UNL     1      32.932  29.248   5.389  1.00  0.00     0.153 A 
ATOM     37  N   UNL     1      34.055  29.856   4.955  1.00  0.00    -0.158 NA
ATOM     38  C   UNL     1      33.036  27.872   5.235  1.00  0.00     0.071 A 
ATOM     39  N   UNL     1      34.868  28.908   4.513  1.00  0.00    -0.281 N 
ATOM     40  C   UNL     1      34.286  27.704   4.675  1.00  0.00     0.034 A 
ATOM     41  H   UNL     1      35.824  29.084   4.138  1.00  0.00     0.190 HD
ATOM     42  C   UNL     1      34.907  26.399   4.286  1.00  0.00     0.066 C 
ENDBRANCH  34  36
ENDBRANCH  30  34
ENDBRANCH   4  27
TORSDOF 8
ENDMDL
MODEL 9
REMARK VINA RESULT:    -8.161      2.103      3.724
REMARK INTER + INTRA:         -13.077
REMARK INTER:                 -12.020
REMARK INTRA:                  -1.056
REMARK UNBOUND:                -1.099
REMARK SMILES CO[C@]1(C(=O)N[C@@H](C)c2ccc(-n3cc(F)cn3)nc2)CC[C@H](c2nc(C)cc(Nc3cc(C)[nH]n3)n2)CC1
REMARK SMILES IDX 3 1 21 2 22 3 23 4 38 5 39 6 2 7 1 8 4 9 5 10 6 11 7 13 8 14
REMARK SMILES IDX 9 15 10 16 20 17 11 18 19 19 12 20 13 21 14 22 18 23 15 24
REMARK SMILES IDX 17 25 16 26 24 27 37 28 25 29 29 30 26 31 28 32 27 33 30 34
REMARK SMILES IDX 31 36 36 37 32 38 35 39 33 40 34 42
REMARK H PARENT 6 12 30 35 35 41
REMARK Flexibility Score: inf
ROOT
ATOM      1  C   UNL     1      29.665  24.812   7.567  1.00  0.00     0.146 C 
ATOM      2  C   UNL     1      31.013  25.073   8.307  1.00  0.00     0.046 C 
ATOM      3  C   UNL     1      31.474  26.526   8.138  1.00  0.00     0.015 C 
ATOM      4  C   UNL     1      31.636  26.886   6.649  1.00  0.00     0.058 C 
ATOM      5  C   UNL     1      30.342  26.585   5.859  1.00  0.00     0.015 C 
ATOM      6  C   UNL     1      29.880  25.135   6.069  1.00  0.00     0.046 C 
ENDROOT
BRANCH   1   7
ATOM      7  O   UNL     1      28.614  25.662   8.037  1.00  0.00    -0.368 OA
ATOM      8  C   UNL     1      27.401  25.519   7.319  1.00  0.00     0.196 C 
ENDBRANCH   1   7
BRANCH   1   9
ATOM      9  C   UNL     1      29.255  23.348   7.651  1.00  0.00     0.252 C 
ATOM     10  O   UNL     1      29.108  22.673   6.596  1.00  0.00    -0.272 OA
ATOM     11  N   UNL     1      28.971  22.752   8.930  1.00  0.00    -0.347 N 
ATOM     12  H   UNL     1      29.033  23.351   9.787  1.00  0.00     0.164 HD
BRANCH  11  13
ATOM     13  C   UNL     1      28.616  21.337   9.098  1.00  0.00     0.111 C 
ATOM     14  C   UNL     1      29.685  20.634   9.936  1.00  0.00     0.036 C 
BRANCH  13  15
ATOM     15  C   UNL     1      27.250  21.179   9.740  1.00  0.00    -0.007 A 
ATOM     16  C   UNL     1      26.782  22.063  10.731  1.00  0.00     0.011 A 
ATOM     17  C   UNL     1      26.462  20.057   9.428  1.00  0.00     0.119 A 
ATOM     18  C   UNL     1      25.552  21.834  11.352  1.00  0.00     0.049 A 
ATOM     19  N   UNL     1      25.276  19.848  10.058  1.00  0.00    -0.237 NA
ATOM     20  C   UNL     1      24.793  20.700  11.004  1.00  0.00     0.153 A 
BRANCH  20  21
ATOM     21  N   UNL     1      23.536  20.398  11.640  1.00  0.00    -0.220 N 
ATOM     22  C   UNL     1      23.330  20.039  12.927  1.00  0.00     0.156 A 
ATOM     23  N   UNL     1      22.376  20.422  10.994  1.00  0.00    -0.172 NA
ATOM     24  C   UNL     1      21.979  19.834  13.094  1.00  0.00     0.161 A 
ATOM     25  C   UNL     1      21.405  20.080  11.864  1.00  0.00     0.174 A 
ATOM     26  F   UNL     1      21.344  19.456  14.230  1.00  0.00    -0.204 F 
ENDBRANCH  20  21
ENDBRANCH  13  15
ENDBRANCH  11  13
ENDBRANCH   1   9
BRANCH   4  27
ATOM     27  C   UNL     1      32.030  28.335   6.531  1.00  0.00     0.134 A 
ATOM     28  N   UNL     1      33.342  28.685   6.424  1.00  0.00    -0.215 NA
ATOM     29  N   UNL     1      31.069  29.289   6.401  1.00  0.00    -0.238 NA
ATOM     30  C   UNL     1      33.720  29.970   6.200  1.00  0.00     0.135 A 
ATOM     31  C   UNL     1      31.394  30.592   6.195  1.00  0.00     0.043 A 
ATOM     32  C   UNL     1      32.740  30.963   6.092  1.00  0.00     0.070 A 
ATOM     33  C   UNL     1      30.314  31.616   6.074  1.00  0.00     0.067 C 
BRANCH  30  34
ATOM     34  N   UNL     1      35.118  30.288   6.149  1.00  0.00    -0.323 N 
ATOM     35  H   UNL     1      35.544  30.447   5.214  1.00  0.00     0.170 HD
BRANCH  34  36
ATOM     36  C   UNL     1      35.951  30.439   7.308  1.00  0.00     0.153 A 
ATOM     37  N   UNL     1      37.107  31.133   7.293  1.00  0.00    -0.158 NA
ATOM     38  C   UNL     1      35.666  30.000   8.594  1.00  0.00     0.071 A 
ATOM     39  N   UNL     1      37.578  31.137   8.531  1.00  0.00    -0.281 N 
ATOM     40  C   UNL     1      36.730  30.470   9.338  1.00  0.00     0.034 A 
ATOM     41  H   UNL     1      38.452  31.623   8.824  1.00  0.00     0.190 HD
ATOM     42  C   UNL     1      36.935  30.266  10.806  1.00  0.00     0.066 C 
ENDBRANCH  34  36
ENDBRANCH  30  34
ENDBRANCH   4  27
TORSDOF 8
ENDMDL
MODEL 10
REMARK VINA RESULT:    -8.133      6.041     10.571
REMARK INTER + INTRA:         -13.035
REMARK INTER:                 -11.744
REMARK INTRA:                  -1.292
REMARK UNBOUND:                -1.099
REMARK SMILES CO[C@]1(C(=O)N[C@@H](C)c2ccc(-n3cc(F)cn3)nc2)CC[C@H](c2nc(C)cc(Nc3cc(C)[nH]n3)n2)CC1
REMARK SMILES IDX 3 1 21 2 22 3 23 4 38 5 39 6 2 7 1 8 4 9 5 10 6 11 7 13 8 14
REMARK SMILES IDX 9 15 10 16 20 17 11 18 19 19 12 20 13 21 14 22 18 23 15 24
REMARK SMILES IDX 17 25 16 26 24 27 37 28 25 29 29 30 26 31 28 32 27 33 30 34
REMARK SMILES IDX 31 36 36 37 32 38 35 39 33 40 34 42
REMARK H PARENT 6 12 30 35 35 41
REMARK Flexibility Score: inf
ROOT
ATOM      1  C   UNL     1      22.425  22.140  12.469  1.00  0.00     0.146 C 
ATOM      2  C   UNL     1      23.859  22.674  12.771  1.00  0.00     0.046 C 
ATOM      3  C   UNL     1      24.868  22.201  11.717  1.00  0.00     0.015 C 
ATOM      4  C   UNL     1      24.907  20.663  11.638  1.00  0.00     0.058 C 
ATOM      5  C   UNL     1      23.494  20.081  11.402  1.00  0.00     0.015 C 
ATOM      6  C   UNL     1      22.493  20.594  12.448  1.00  0.00     0.046 C 
ENDROOT
BRANCH   1   7
ATOM      7  O   UNL     1      21.948  22.560  11.187  1.00  0.00    -0.368 OA
ATOM      8  C   UNL     1      21.741  23.958  11.085  1.00  0.00     0.196 C 
ENDBRANCH   1   7
BRANCH   1   9
ATOM      9  C   UNL     1      21.442  22.526  13.565  1.00  0.00     0.252 C 
ATOM     10  O   UNL     1      20.288  22.017  13.585  1.00  0.00    -0.272 OA
ATOM     11  N   UNL     1      21.804  23.520  14.541  1.00  0.00    -0.347 N 
ATOM     12  H   UNL     1      22.742  23.980  14.462  1.00  0.00     0.164 HD
BRANCH  11  13
ATOM     13  C   UNL     1      20.931  23.912  15.654  1.00  0.00     0.111 C 
ATOM     14  C   UNL     1      21.723  23.890  16.962  1.00  0.00     0.036 C 
BRANCH  13  15
ATOM     15  C   UNL     1      20.322  25.283  15.427  1.00  0.00    -0.007 A 
ATOM     16  C   UNL     1      19.007  25.594  15.821  1.00  0.00     0.011 A 
ATOM     17  C   UNL     1      21.041  26.249  14.699  1.00  0.00     0.119 A 
ATOM     18  C   UNL     1      18.459  26.843  15.520  1.00  0.00     0.049 A 
ATOM     19  N   UNL     1      20.480  27.452  14.405  1.00  0.00    -0.237 NA
ATOM     20  C   UNL     1      19.217  27.783  14.795  1.00  0.00     0.153 A 
BRANCH  20  21
ATOM     21  N   UNL     1      18.688  29.070  14.427  1.00  0.00    -0.220 N 
ATOM     22  C   UNL     1      19.380  30.165  14.038  1.00  0.00     0.156 A 
ATOM     23  N   UNL     1      17.389  29.350  14.447  1.00  0.00    -0.172 NA
ATOM     24  C   UNL     1      18.472  31.172  13.800  1.00  0.00     0.161 A 
ATOM     25  C   UNL     1      17.231  30.633  14.065  1.00  0.00     0.174 A 
ATOM     26  F   UNL     1      18.743  32.438  13.397  1.00  0.00    -0.204 F 
ENDBRANCH  20  21
ENDBRANCH  13  15
ENDBRANCH  11  13
ENDBRANCH   1   9
BRANCH   4  27
ATOM     27  C   UNL     1      25.864  20.248  10.551  1.00  0.00     0.134 A 
ATOM     28  N   UNL     1      27.182  20.578  10.633  1.00  0.00    -0.215 NA
ATOM     29  N   UNL     1      25.437  19.431   9.551  1.00  0.00    -0.238 NA
ATOM     30  C   UNL     1      28.088  20.120   9.730  1.00  0.00     0.135 A 
ATOM     31  C   UNL     1      26.299  18.960   8.611  1.00  0.00     0.043 A 
ATOM     32  C   UNL     1      27.655  19.301   8.681  1.00  0.00     0.070 A 
ATOM     33  C   UNL     1      25.794  18.079   7.517  1.00  0.00     0.067 C 
BRANCH  30  34
ATOM     34  N   UNL     1      29.454  20.544   9.835  1.00  0.00    -0.323 N 
ATOM     35  H   UNL     1      30.114  19.926  10.349  1.00  0.00     0.170 HD
BRANCH  34  36
ATOM     36  C   UNL     1      29.972  21.743   9.242  1.00  0.00     0.153 A 
ATOM     37  N   UNL     1      30.061  21.921   7.908  1.00  0.00    -0.158 NA
ATOM     38  C   UNL     1      30.355  22.897   9.911  1.00  0.00     0.071 A 
ATOM     39  N   UNL     1      30.505  23.152   7.705  1.00  0.00    -0.281 N 
ATOM     40  C   UNL     1      30.684  23.767   8.890  1.00  0.00     0.034 A 
ATOM     41  H   UNL     1      30.648  23.576   6.764  1.00  0.00     0.190 HD
ATOM     42  C   UNL     1      31.181  25.169   9.055  1.00  0.00     0.066 C 
ENDBRANCH  34  36
ENDBRANCH  30  34
ENDBRANCH   4  27
TORSDOF 8
ENDMDL
MODEL 11
REMARK VINA RESULT:    -8.125      5.063     13.087
REMARK INTER + INTRA:         -13.024
REMARK INTER:                 -11.797
REMARK INTRA:                  -1.228
REMARK UNBOUND:                -1.099
REMARK SMILES CO[C@]1(C(=O)N[C@@H](C)c2ccc(-n3cc(F)cn3)nc2)CC[C@H](c2nc(C)cc(Nc3cc(C)[nH]n3)n2)CC1
REMARK SMILES IDX 3 1 21 2 22 3 23 4 38 5 39 6 2 7 1 8 4 9 5 10 6 11 7 13 8 14
REMARK SMILES IDX 9 15 10 16 20 17 11 18 19 19 12 20 13 21 14 22 18 23 15 24
REMARK SMILES IDX 17 25 16 26 24 27 37 28 25 29 29 30 26 31 28 32 27 33 30 34
REMARK SMILES IDX 31 36 36 37 32 38 35 39 33 40 34 42
REMARK H PARENT 6 12 30 35 35 41
REMARK Flexibility Score: inf
ROOT
ATOM      1  C   UNL     1      24.558  25.624  10.514  1.00  0.00     0.146 C 
ATOM      2  C   UNL     1      23.011  25.803  10.428  1.00  0.00     0.046 C 
ATOM      3  C   UNL     1      22.292  25.005  11.523  1.00  0.00     0.015 C 
ATOM      4  C   UNL     1      22.633  23.506  11.431  1.00  0.00     0.058 C 
ATOM      5  C   UNL     1      24.162  23.280  11.448  1.00  0.00     0.015 C 
ATOM      6  C   UNL     1      24.865  24.114  10.366  1.00  0.00     0.046 C 
ENDROOT
BRANCH   1   7
ATOM      7  O   UNL     1      25.084  26.042  11.778  1.00  0.00    -0.368 OA
ATOM      8  C   UNL     1      24.969  27.434  12.011  1.00  0.00     0.196 C 
ENDBRANCH   1   7
BRANCH   1   9
ATOM      9  C   UNL     1      25.268  26.335   9.371  1.00  0.00     0.252 C 
ATOM     10  O   UNL     1      24.628  27.128   8.627  1.00  0.00    -0.272 OA
ATOM     11  N   UNL     1      26.653  26.054   9.097  1.00  0.00    -0.347 N 
ATOM     12  H   UNL     1      27.145  25.340   9.685  1.00  0.00     0.164 HD
BRANCH  11  13
ATOM     13  C   UNL     1      27.420  26.732   8.044  1.00  0.00     0.111 C 
ATOM     14  C   UNL     1      28.233  27.875   8.655  1.00  0.00     0.036 C 
BRANCH  13  15
ATOM     15  C   UNL     1      28.331  25.766   7.311  1.00  0.00    -0.007 A 
ATOM     16  C   UNL     1      27.995  24.411   7.128  1.00  0.00     0.011 A 
ATOM     17  C   UNL     1      29.605  26.193   6.895  1.00  0.00     0.119 A 
ATOM     18  C   UNL     1      28.898  23.538   6.518  1.00  0.00     0.049 A 
ATOM     19  N   UNL     1      30.473  25.321   6.317  1.00  0.00    -0.237 NA
ATOM     20  C   UNL     1      30.161  24.011   6.110  1.00  0.00     0.153 A 
BRANCH  20  21
ATOM     21  N   UNL     1      31.143  23.146   5.510  1.00  0.00    -0.220 N 
ATOM     22  C   UNL     1      32.448  23.025   5.843  1.00  0.00     0.156 A 
ATOM     23  N   UNL     1      30.868  22.338   4.492  1.00  0.00    -0.172 NA
ATOM     24  C   UNL     1      33.012  22.095   4.998  1.00  0.00     0.161 A 
ATOM     25  C   UNL     1      31.997  21.682   4.161  1.00  0.00     0.174 A 
ATOM     26  F   UNL     1      34.302  21.680   4.986  1.00  0.00    -0.204 F 
ENDBRANCH  20  21
ENDBRANCH  13  15
ENDBRANCH  11  13
ENDBRANCH   1   9
BRANCH   4  27
ATOM     27  C   UNL     1      21.954  22.774  12.559  1.00  0.00     0.134 A 
ATOM     28  N   UNL     1      22.418  21.563  12.972  1.00  0.00    -0.215 NA
ATOM     29  N   UNL     1      20.955  23.382  13.254  1.00  0.00    -0.238 NA
ATOM     30  C   UNL     1      21.900  20.934  14.059  1.00  0.00     0.135 A 
ATOM     31  C   UNL     1      20.390  22.789  14.338  1.00  0.00     0.043 A 
ATOM     32  C   UNL     1      20.854  21.539  14.765  1.00  0.00     0.070 A 
ATOM     33  C   UNL     1      19.284  23.476  15.068  1.00  0.00     0.067 C 
BRANCH  30  34
ATOM     34  N   UNL     1      22.393  19.635  14.415  1.00  0.00    -0.323 N 
ATOM     35  H   UNL     1      23.422  19.511  14.489  1.00  0.00     0.170 HD
BRANCH  34  36
ATOM     36  C   UNL     1      21.553  18.511  14.714  1.00  0.00     0.153 A 
ATOM     37  N   UNL     1      20.459  18.200  13.989  1.00  0.00    -0.158 NA
ATOM     38  C   UNL     1      21.776  17.549  15.690  1.00  0.00     0.071 A 
ATOM     39  N   UNL     1      19.966  17.074  14.484  1.00  0.00    -0.281 N 
ATOM     40  C   UNL     1      20.741  16.654  15.503  1.00  0.00     0.034 A 
ATOM     41  H   UNL     1      19.130  16.583  14.103  1.00  0.00     0.190 HD
ATOM     42  C   UNL     1      20.491  15.417  16.307  1.00  0.00     0.066 C 
ENDBRANCH  34  36
ENDBRANCH  30  34
ENDBRANCH   4  27
TORSDOF 8
ENDMDL
MODEL 12
REMARK VINA RESULT:    -8.107      2.909      3.539
REMARK INTER + INTRA:         -12.997
REMARK INTER:                 -12.605
REMARK INTRA:                  -0.392
REMARK UNBOUND:                -1.099
REMARK SMILES CO[C@]1(C(=O)N[C@@H](C)c2ccc(-n3cc(F)cn3)nc2)CC[C@H](c2nc(C)cc(Nc3cc(C)[nH]n3)n2)CC1
REMARK SMILES IDX 3 1 21 2 22 3 23 4 38 5 39 6 2 7 1 8 4 9 5 10 6 11 7 13 8 14
REMARK SMILES IDX 9 15 10 16 20 17 11 18 19 19 12 20 13 21 14 22 18 23 15 24
REMARK SMILES IDX 17 25 16 26 24 27 37 28 25 29 29 30 26 31 28 32 27 33 30 34
REMARK SMILES IDX 31 36 36 37 32 38 35 39 33 40 34 42
REMARK H PARENT 6 12 30 35 35 41
REMARK Flexibility Score: inf
ROOT
ATOM      1  C   UNL     1      29.869  22.811   7.919  1.00  0.00     0.146 C 
ATOM      2  C   UNL     1      30.925  23.626   8.726  1.00  0.00     0.046 C 
ATOM      3  C   UNL     1      31.674  24.618   7.828  1.00  0.00     0.015 C 
ATOM      4  C   UNL     1      32.376  23.892   6.665  1.00  0.00     0.058 C 
ATOM      5  C   UNL     1      31.380  23.018   5.871  1.00  0.00     0.015 C 
ATOM      6  C   UNL     1      30.617  22.056   6.794  1.00  0.00     0.046 C 
ENDROOT
BRANCH   1   7
ATOM      7  O   UNL     1      28.896  23.652   7.290  1.00  0.00    -0.368 OA
ATOM      8  C   UNL     1      28.174  24.465   8.198  1.00  0.00     0.196 C 
ENDBRANCH   1   7
BRANCH   1   9
ATOM      9  C   UNL     1      29.192  21.758   8.786  1.00  0.00     0.252 C 
ATOM     10  O   UNL     1      29.470  21.678  10.014  1.00  0.00    -0.272 OA
ATOM     11  N   UNL     1      28.285  20.811   8.193  1.00  0.00    -0.347 N 
ATOM     12  H   UNL     1      28.122  20.853   7.158  1.00  0.00     0.164 HD
BRANCH  11  13
ATOM     13  C   UNL     1      27.558  19.797   8.968  1.00  0.00     0.111 C 
ATOM     14  C   UNL     1      28.524  19.081   9.912  1.00  0.00     0.036 C 
BRANCH  13  15
ATOM     15  C   UNL     1      26.411  20.412   9.748  1.00  0.00    -0.007 A 
ATOM     16  C   UNL     1      25.627  19.661  10.644  1.00  0.00     0.011 A 
ATOM     17  C   UNL     1      26.035  21.744   9.495  1.00  0.00     0.119 A 
ATOM     18  C   UNL     1      24.530  20.247  11.281  1.00  0.00     0.049 A 
ATOM     19  N   UNL     1      24.954  22.287  10.116  1.00  0.00    -0.237 NA
ATOM     20  C   UNL     1      24.194  21.586  11.003  1.00  0.00     0.153 A 
BRANCH  20  21
ATOM     21  N   UNL     1      23.053  22.227  11.604  1.00  0.00    -0.220 N 
ATOM     22  C   UNL     1      22.369  21.830  12.701  1.00  0.00     0.156 A 
ATOM     23  N   UNL     1      22.502  23.331  11.112  1.00  0.00    -0.172 NA
ATOM     24  C   UNL     1      21.347  22.730  12.905  1.00  0.00     0.161 A 
ATOM     25  C   UNL     1      21.454  23.660  11.893  1.00  0.00     0.174 A 
ATOM     26  F   UNL     1      20.419  22.701  13.893  1.00  0.00    -0.204 F 
ENDBRANCH  20  21
ENDBRANCH  13  15
ENDBRANCH  11  13
ENDBRANCH   1   9
BRANCH   4  27
ATOM     27  C   UNL     1      33.046  24.910   5.780  1.00  0.00     0.134 A 
ATOM     28  N   UNL     1      32.789  26.237   5.940  1.00  0.00    -0.215 NA
ATOM     29  N   UNL     1      34.009  24.515   4.905  1.00  0.00    -0.238 NA
ATOM     30  C   UNL     1      33.463  27.184   5.237  1.00  0.00     0.135 A 
ATOM     31  C   UNL     1      34.701  25.419   4.163  1.00  0.00     0.043 A 
ATOM     32  C   UNL     1      34.437  26.786   4.313  1.00  0.00     0.070 A 
ATOM     33  C   UNL     1      35.740  24.950   3.199  1.00  0.00     0.067 C 
BRANCH  30  34
ATOM     34  N   UNL     1      33.111  28.564   5.408  1.00  0.00    -0.323 N 
ATOM     35  H   UNL     1      32.172  28.868   5.082  1.00  0.00     0.170 HD
BRANCH  34  36
ATOM     36  C   UNL     1      33.957  29.537   6.036  1.00  0.00     0.153 A 
ATOM     37  N   UNL     1      35.002  30.115   5.407  1.00  0.00    -0.158 NA
ATOM     38  C   UNL     1      33.786  30.090   7.298  1.00  0.00     0.071 A 
ATOM     39  N   UNL     1      35.514  31.011   6.238  1.00  0.00    -0.281 N 
ATOM     40  C   UNL     1      34.799  31.024   7.381  1.00  0.00     0.034 A 
ATOM     41  H   UNL     1      36.320  31.629   6.009  1.00  0.00     0.190 HD
ATOM     42  C   UNL     1      35.086  31.909   8.553  1.00  0.00     0.066 C 
ENDBRANCH  34  36
ENDBRANCH  30  34
ENDBRANCH   4  27
TORSDOF 8
ENDMDL
MODEL 13
REMARK VINA RESULT:    -7.987      6.097     14.571
REMARK INTER + INTRA:         -12.821
REMARK INTER:                 -11.796
REMARK INTRA:                  -1.026
REMARK UNBOUND:                -1.099
REMARK SMILES CO[C@]1(C(=O)N[C@@H](C)c2ccc(-n3cc(F)cn3)nc2)CC[C@H](c2nc(C)cc(Nc3cc(C)[nH]n3)n2)CC1
REMARK SMILES IDX 3 1 21 2 22 3 23 4 38 5 39 6 2 7 1 8 4 9 5 10 6 11 7 13 8 14
REMARK SMILES IDX 9 15 10 16 20 17 11 18 19 19 12 20 13 21 14 22 18 23 15 24
REMARK SMILES IDX 17 25 16 26 24 27 37 28 25 29 29 30 26 31 28 32 27 33 30 34
REMARK SMILES IDX 31 36 36 37 32 38 35 39 33 40 34 42
REMARK H PARENT 6 12 30 35 35 41
REMARK Flexibility Score: inf
ROOT
ATOM      1  C   UNL     1      24.849  21.266  11.948  1.00  0.00     0.146 C 
ATOM      2  C   UNL     1      25.127  21.954  13.320  1.00  0.00     0.046 C 
ATOM      3  C   UNL     1      24.970  20.967  14.484  1.00  0.00     0.015 C 
ATOM      4  C   UNL     1      23.559  20.352  14.504  1.00  0.00     0.058 C 
ATOM      5  C   UNL     1      23.211  19.711  13.141  1.00  0.00     0.015 C 
ATOM      6  C   UNL     1      23.406  20.706  11.986  1.00  0.00     0.046 C 
ENDROOT
BRANCH   1   7
ATOM      7  O   UNL     1      25.726  20.161  11.706  1.00  0.00    -0.368 OA
ATOM      8  C   UNL     1      25.568  19.577  10.425  1.00  0.00     0.196 C 
ENDBRANCH   1   7
BRANCH   1   9
ATOM      9  C   UNL     1      24.907  22.263  10.800  1.00  0.00     0.252 C 
ATOM     10  O   UNL     1      23.841  22.665  10.259  1.00  0.00    -0.272 OA
ATOM     11  N   UNL     1      26.180  22.699  10.288  1.00  0.00    -0.347 N 
ATOM     12  H   UNL     1      27.052  22.298  10.707  1.00  0.00     0.164 HD
BRANCH  11  13
ATOM     13  C   UNL     1      26.320  23.693   9.216  1.00  0.00     0.111 C 
ATOM     14  C   UNL     1      26.425  25.092   9.822  1.00  0.00     0.036 C 
BRANCH  13  15
ATOM     15  C   UNL     1      27.525  23.401   8.342  1.00  0.00    -0.007 A 
ATOM     16  C   UNL     1      27.920  24.259   7.299  1.00  0.00     0.011 A 
ATOM     17  C   UNL     1      28.213  22.183   8.493  1.00  0.00     0.119 A 
ATOM     18  C   UNL     1      28.988  23.912   6.468  1.00  0.00     0.049 A 
ATOM     19  N   UNL     1      29.239  21.860   7.662  1.00  0.00    -0.237 NA
ATOM     20  C   UNL     1      29.652  22.685   6.659  1.00  0.00     0.153 A 
BRANCH  20  21
ATOM     21  N   UNL     1      30.735  22.262   5.809  1.00  0.00    -0.220 N 
ATOM     22  C   UNL     1      30.762  22.249   4.456  1.00  0.00     0.156 A 
ATOM     23  N   UNL     1      31.885  21.795   6.281  1.00  0.00    -0.172 NA
ATOM     24  C   UNL     1      31.987  21.755   4.068  1.00  0.00     0.161 A 
ATOM     25  C   UNL     1      32.670  21.478   5.233  1.00  0.00     0.174 A 
ATOM     26  F   UNL     1      32.427  21.569   2.799  1.00  0.00    -0.204 F 
ENDBRANCH  20  21
ENDBRANCH  13  15
ENDBRANCH  11  13
ENDBRANCH   1   9
BRANCH   4  27
ATOM     27  C   UNL     1      23.472  19.349  15.624  1.00  0.00     0.134 A 
ATOM     28  N   UNL     1      22.292  18.730  15.904  1.00  0.00    -0.215 NA
ATOM     29  N   UNL     1      24.603  18.962  16.273  1.00  0.00    -0.238 NA
ATOM     30  C   UNL     1      22.210  17.739  16.829  1.00  0.00     0.135 A 
ATOM     31  C   UNL     1      24.573  17.988  17.220  1.00  0.00     0.043 A 
ATOM     32  C   UNL     1      23.363  17.352  17.522  1.00  0.00     0.070 A 
ATOM     33  C   UNL     1      25.830  17.599  17.926  1.00  0.00     0.067 C 
BRANCH  30  34
ATOM     34  N   UNL     1      20.930  17.161  17.121  1.00  0.00    -0.323 N 
ATOM     35  H   UNL     1      20.102  17.790  17.115  1.00  0.00     0.170 HD
BRANCH  34  36
ATOM     36  C   UNL     1      20.718  15.765  17.379  1.00  0.00     0.153 A 
ATOM     37  N   UNL     1      21.116  14.795  16.531  1.00  0.00    -0.158 NA
ATOM     38  C   UNL     1      20.183  15.210  18.533  1.00  0.00     0.071 A 
ATOM     39  N   UNL     1      20.837  13.634  17.105  1.00  0.00    -0.281 N 
ATOM     40  C   UNL     1      20.281  13.851  18.313  1.00  0.00     0.034 A 
ATOM     41  H   UNL     1      21.057  12.705  16.687  1.00  0.00     0.190 HD
ATOM     42  C   UNL     1      19.832  12.773  19.249  1.00  0.00     0.066 C 
ENDBRANCH  34  36
ENDBRANCH  30  34
ENDBRANCH   4  27
TORSDOF 8
ENDMDL
MODEL 14
REMARK VINA RESULT:    -7.899      3.790     11.759
REMARK INTER + INTRA:         -12.693
REMARK INTER:                 -11.446
REMARK INTRA:                  -1.246
REMARK UNBOUND:                -1.099
REMARK SMILES CO[C@]1(C(=O)N[C@@H](C)c2ccc(-n3cc(F)cn3)nc2)CC[C@H](c2nc(C)cc(Nc3cc(C)[nH]n3)n2)CC1
REMARK SMILES IDX 3 1 21 2 22 3 23 4 38 5 39 6 2 7 1 8 4 9 5 10 6 11 7 13 8 14
REMARK SMILES IDX 9 15 10 16 20 17 11 18 19 19 12 20 13 21 14 22 18 23 15 24
REMARK SMILES IDX 17 25 16 26 24 27 37 28 25 29 29 30 26 31 28 32 27 33 30 34
REMARK SMILES IDX 31 36 36 37 32 38 35 39 33 40 34 42
REMARK H PARENT 6 12 30 35 35 41
REMARK Flexibility Score: inf
ROOT
ATOM      1  C   UNL     1      29.903  24.791   8.456  1.00  0.00     0.146 C 
ATOM      2  C   UNL     1      30.073  23.644   7.412  1.00  0.00     0.046 C 
ATOM      3  C   UNL     1      29.059  22.518   7.647  1.00  0.00     0.015 C 
ATOM      4  C   UNL     1      29.196  21.935   9.066  1.00  0.00     0.058 C 
ATOM      5  C   UNL     1      29.098  23.045  10.137  1.00  0.00     0.015 C 
ATOM      6  C   UNL     1      30.098  24.179   9.864  1.00  0.00     0.046 C 
ENDROOT
BRANCH   1   7
ATOM      7  O   UNL     1      28.593  25.367   8.423  1.00  0.00    -0.368 OA
ATOM      8  C   UNL     1      28.400  26.400   9.372  1.00  0.00     0.196 C 
ENDBRANCH   1   7
BRANCH   1   9
ATOM      9  C   UNL     1      30.970  25.864   8.288  1.00  0.00     0.252 C 
ATOM     10  O   UNL     1      31.804  26.075   9.211  1.00  0.00    -0.272 OA
ATOM     11  N   UNL     1      30.988  26.682   7.104  1.00  0.00    -0.347 N 
ATOM     12  H   UNL     1      30.243  26.535   6.382  1.00  0.00     0.164 HD
BRANCH  11  13
ATOM     13  C   UNL     1      32.010  27.704   6.846  1.00  0.00     0.111 C 
ATOM     14  C   UNL     1      32.594  27.506   5.447  1.00  0.00     0.036 C 
BRANCH  13  15
ATOM     15  C   UNL     1      31.445  29.104   6.992  1.00  0.00    -0.007 A 
ATOM     16  C   UNL     1      30.408  29.404   7.896  1.00  0.00     0.011 A 
ATOM     17  C   UNL     1      31.882  30.123   6.125  1.00  0.00     0.119 A 
ATOM     18  C   UNL     1      29.863  30.689   7.941  1.00  0.00     0.049 A 
ATOM     19  N   UNL     1      31.325  31.362   6.177  1.00  0.00    -0.237 NA
ATOM     20  C   UNL     1      30.336  31.680   7.058  1.00  0.00     0.153 A 
BRANCH  20  21
ATOM     21  N   UNL     1      29.784  33.010   7.038  1.00  0.00    -0.220 N 
ATOM     22  C   UNL     1      29.868  33.921   6.042  1.00  0.00     0.156 A 
ATOM     23  N   UNL     1      29.108  33.527   8.058  1.00  0.00    -0.172 NA
ATOM     24  C   UNL     1      29.210  35.058   6.458  1.00  0.00     0.161 A 
ATOM     25  C   UNL     1      28.745  34.782   7.726  1.00  0.00     0.174 A 
ATOM     26  F   UNL     1      29.061  36.213   5.766  1.00  0.00    -0.204 F 
ENDBRANCH  20  21
ENDBRANCH  13  15
ENDBRANCH  11  13
ENDBRANCH   1   9
BRANCH   4  27
ATOM     27  C   UNL     1      28.144  20.876   9.269  1.00  0.00     0.134 A 
ATOM     28  N   UNL     1      27.213  21.011  10.254  1.00  0.00    -0.215 NA
ATOM     29  N   UNL     1      28.041  19.847   8.385  1.00  0.00    -0.238 NA
ATOM     30  C   UNL     1      26.185  20.134  10.387  1.00  0.00     0.135 A 
ATOM     31  C   UNL     1      27.042  18.931   8.484  1.00  0.00     0.043 A 
ATOM     32  C   UNL     1      26.085  19.056   9.499  1.00  0.00     0.070 A 
ATOM     33  C   UNL     1      26.968  17.804   7.508  1.00  0.00     0.067 C 
BRANCH  30  34
ATOM     34  N   UNL     1      25.266  20.296  11.476  1.00  0.00    -0.323 N 
ATOM     35  H   UNL     1      25.538  19.907  12.401  1.00  0.00     0.170 HD
BRANCH  34  36
ATOM     36  C   UNL     1      24.016  20.994  11.377  1.00  0.00     0.153 A 
ATOM     37  N   UNL     1      22.823  20.365  11.370  1.00  0.00    -0.158 NA
ATOM     38  C   UNL     1      23.837  22.371  11.372  1.00  0.00     0.071 A 
ATOM     39  N   UNL     1      21.886  21.300  11.346  1.00  0.00    -0.281 N 
ATOM     40  C   UNL     1      22.464  22.517  11.354  1.00  0.00     0.034 A 
ATOM     41  H   UNL     1      20.863  21.105  11.360  1.00  0.00     0.190 HD
ATOM     42  C   UNL     1      21.718  23.814  11.329  1.00  0.00     0.066 C 
ENDBRANCH  34  36
ENDBRANCH  30  34
ENDBRANCH   4  27
TORSDOF 8
ENDMDL
MODEL 15
REMARK VINA RESULT:    -7.881      2.063      3.507
REMARK INTER + INTRA:         -12.666
REMARK INTER:                 -11.413
REMARK INTRA:                  -1.254
REMARK UNBOUND:                -1.099
REMARK SMILES CO[C@]1(C(=O)N[C@@H](C)c2ccc(-n3cc(F)cn3)nc2)CC[C@H](c2nc(C)cc(Nc3cc(C)[nH]n3)n2)CC1
REMARK SMILES IDX 3 1 21 2 22 3 23 4 38 5 39 6 2 7 1 8 4 9 5 10 6 11 7 13 8 14
REMARK SMILES IDX 9 15 10 16 20 17 11 18 19 19 12 20 13 21 14 22 18 23 15 24
REMARK SMILES IDX 17 25 16 26 24 27 37 28 25 29 29 30 26 31 28 32 27 33 30 34
REMARK SMILES IDX 31 36 36 37 32 38 35 39 33 40 34 42
REMARK H PARENT 6 12 30 35 35 41
REMARK Flexibility Score: inf
ROOT
ATOM      1  C   UNL     1      29.364  23.784   7.979  1.00  0.00     0.146 C 
ATOM      2  C   UNL     1      28.693  24.619   6.844  1.00  0.00     0.046 C 
ATOM      3  C   UNL     1      29.265  26.041   6.783  1.00  0.00     0.015 C 
ATOM      4  C   UNL     1      29.080  26.772   8.126  1.00  0.00     0.058 C 
ATOM      5  C   UNL     1      29.673  25.951   9.293  1.00  0.00     0.015 C 
ATOM      6  C   UNL     1      29.113  24.521   9.316  1.00  0.00     0.046 C 
ENDROOT
BRANCH   1   7
ATOM      7  O   UNL     1      30.782  23.679   7.811  1.00  0.00    -0.368 OA
ATOM      8  C   UNL     1      31.168  22.932   6.672  1.00  0.00     0.196 C 
ENDBRANCH   1   7
BRANCH   1   9
ATOM      9  C   UNL     1      28.732  22.405   8.107  1.00  0.00     0.252 C 
ATOM     10  O   UNL     1      27.949  21.984   7.211  1.00  0.00    -0.272 OA
ATOM     11  N   UNL     1      28.975  21.607   9.280  1.00  0.00    -0.347 N 
ATOM     12  H   UNL     1      29.572  22.007  10.042  1.00  0.00     0.164 HD
BRANCH  11  13
ATOM     13  C   UNL     1      28.441  20.251   9.457  1.00  0.00     0.111 C 
ATOM     14  C   UNL     1      29.392  19.433  10.331  1.00  0.00     0.036 C 
BRANCH  13  15
ATOM     15  C   UNL     1      27.051  20.276  10.066  1.00  0.00    -0.007 A 
ATOM     16  C   UNL     1      26.489  21.450  10.602  1.00  0.00     0.011 A 
ATOM     17  C   UNL     1      26.334  19.074  10.208  1.00  0.00     0.119 A 
ATOM     18  C   UNL     1      25.239  21.411  11.225  1.00  0.00     0.049 A 
ATOM     19  N   UNL     1      25.126  19.059  10.832  1.00  0.00    -0.237 NA
ATOM     20  C   UNL     1      24.554  20.186  11.340  1.00  0.00     0.153 A 
BRANCH  20  21
ATOM     21  N   UNL     1      23.280  20.084  12.004  1.00  0.00    -0.220 N 
ATOM     22  C   UNL     1      23.051  19.802  13.307  1.00  0.00     0.156 A 
ATOM     23  N   UNL     1      22.122  20.244  11.375  1.00  0.00    -0.172 NA
ATOM     24  C   UNL     1      21.688  19.792  13.500  1.00  0.00     0.161 A 
ATOM     25  C   UNL     1      21.130  20.071  12.271  1.00  0.00     0.174 A 
ATOM     26  F   UNL     1      21.030  19.546  14.659  1.00  0.00    -0.204 F 
ENDBRANCH  20  21
ENDBRANCH  13  15
ENDBRANCH  11  13
ENDBRANCH   1   9
BRANCH   4  27
ATOM     27  C   UNL     1      29.707  28.138   8.035  1.00  0.00     0.134 A 
ATOM     28  N   UNL     1      30.712  28.376   7.148  1.00  0.00    -0.215 NA
ATOM     29  N   UNL     1      29.183  29.171   8.748  1.00  0.00    -0.238 NA
ATOM     30  C   UNL     1      31.217  29.623   6.963  1.00  0.00     0.135 A 
ATOM     31  C   UNL     1      29.664  30.435   8.614  1.00  0.00     0.043 A 
ATOM     32  C   UNL     1      30.703  30.689   7.711  1.00  0.00     0.070 A 
ATOM     33  C   UNL     1      29.076  31.543   9.424  1.00  0.00     0.067 C 
BRANCH  30  34
ATOM     34  N   UNL     1      32.312  29.805   6.054  1.00  0.00    -0.323 N 
ATOM     35  H   UNL     1      32.103  29.795   5.035  1.00  0.00     0.170 HD
BRANCH  34  36
ATOM     36  C   UNL     1      33.667  30.040   6.464  1.00  0.00     0.153 A 
ATOM     37  N   UNL     1      34.567  30.677   5.688  1.00  0.00    -0.158 NA
ATOM     38  C   UNL     1      34.217  29.753   7.706  1.00  0.00     0.071 A 
ATOM     39  N   UNL     1      35.683  30.791   6.392  1.00  0.00    -0.281 N 
ATOM     40  C   UNL     1      35.501  30.251   7.614  1.00  0.00     0.034 A 
ATOM     41  H   UNL     1      36.546  31.266   6.052  1.00  0.00     0.190 HD
ATOM     42  C   UNL     1      36.546  30.194   8.683  1.00  0.00     0.066 C 
ENDBRANCH  34  36
ENDBRANCH  30  34
ENDBRANCH   4  27
TORSDOF 8
ENDMDL
