REMARK SMILES Cc1ccc(NC(=O)c2ccc(CN3CCN(C)CC3)cc2)cc1Nc1nccc(-c2cccnc2)n1
REMARK SMILES IDX 5 1 23 2 24 3 2 4 1 5 3 6 4 7 6 8 7 9 8 10 9 12 12 13 11 14
REMARK SMILES IDX 21 15 10 16 22 17 13 18 14 19 18 20 17 21 16 22 19 23 15 24
REMARK SMILES IDX 20 25 25 26 26 28 27 29 37 30 28 31 30 32 29 33 31 34 36 35
REMARK SMILES IDX 32 36 35 37 33 38 34 39
REMARK H PARENT 6 11 25 27
REMARK Flexibility Score: inf
ROOT
ATOM      1  C   UNL     1       1.610  -3.492  -1.351  1.00  0.00     0.043 A 
ATOM      2  C   UNL     1       2.711  -3.111  -0.567  1.00  0.00     0.052 A 
ATOM      3  C   UNL     1       3.942  -3.785  -0.672  1.00  0.00     0.046 A 
ATOM      4  C   UNL     1       4.049  -4.893  -1.544  1.00  0.00    -0.027 A 
ATOM      5  C   UNL     1       5.338  -5.658  -1.674  1.00  0.00     0.046 C 
ATOM      6  C   UNL     1       2.929  -5.300  -2.286  1.00  0.00     0.008 A 
ATOM      7  C   UNL     1       1.723  -4.605  -2.192  1.00  0.00     0.026 A 
ENDROOT
BRANCH   1   8
ATOM      8  N   UNL     1       0.358  -2.792  -1.266  1.00  0.00    -0.322 N 
ATOM      9  C   UNL     1       0.259  -1.367  -1.090  1.00  0.00     0.255 C 
ATOM     10  O   UNL     1       1.271  -0.641  -1.287  1.00  0.00    -0.269 OA
ATOM     11  H   UNL     1      -0.514  -3.321  -1.495  1.00  0.00     0.170 HD
BRANCH   9  12
ATOM     12  C   UNL     1      -1.030  -0.732  -0.733  1.00  0.00     0.040 A 
ATOM     13  C   UNL     1      -3.481   0.492  -0.065  1.00  0.00    -0.034 A 
ATOM     14  C   UNL     1      -3.248  -0.852   0.263  1.00  0.00     0.006 A 
ATOM     15  C   UNL     1      -2.478   1.225  -0.716  1.00  0.00     0.006 A 
ATOM     16  C   UNL     1      -2.034  -1.460  -0.071  1.00  0.00     0.014 A 
ATOM     17  C   UNL     1      -1.261   0.621  -1.041  1.00  0.00     0.014 A 
BRANCH  13  18
ATOM     18  C   UNL     1      -4.791   1.140   0.302  1.00  0.00     0.120 C 
BRANCH  18  19
ATOM     19  N   UNL     1      -4.886   1.341   1.765  1.00  0.00    -0.297 NA
ATOM     20  C   UNL     1      -6.838   4.388   1.224  1.00  0.00     0.105 C 
ATOM     21  N   UNL     1      -6.005   3.961   2.361  1.00  0.00    -0.304 NA
ATOM     22  C   UNL     1      -4.577   3.820   1.980  1.00  0.00     0.099 C 
ATOM     23  C   UNL     1      -6.562   2.766   3.027  1.00  0.00     0.099 C 
ATOM     24  C   UNL     1      -3.998   2.420   2.254  1.00  0.00     0.100 C 
ATOM     25  C   UNL     1      -6.293   1.479   2.225  1.00  0.00     0.100 C 
ENDBRANCH  18  19
ENDBRANCH  13  18
ENDBRANCH   9  12
ENDBRANCH   1   8
BRANCH   3  26
ATOM     26  N   UNL     1       5.059  -3.390   0.148  1.00  0.00    -0.324 N 
ATOM     27  H   UNL     1       5.693  -4.131   0.522  1.00  0.00     0.170 HD
BRANCH  26  28
ATOM     28  C   UNL     1       5.394  -2.026   0.446  1.00  0.00     0.227 A 
ATOM     29  N   UNL     1       6.369  -1.758   1.354  1.00  0.00    -0.221 NA
ATOM     30  N   UNL     1       4.765  -0.999  -0.187  1.00  0.00    -0.213 NA
ATOM     31  C   UNL     1       6.716  -0.480   1.651  1.00  0.00     0.117 A 
ATOM     32  C   UNL     1       5.062   0.301   0.086  1.00  0.00     0.077 A 
ATOM     33  C   UNL     1       6.067   0.583   1.024  1.00  0.00     0.049 A 
BRANCH  32  34
ATOM     34  C   UNL     1       4.312   1.377  -0.609  1.00  0.00     0.019 A 
ATOM     35  C   UNL     1       4.073   2.622   0.002  1.00  0.00     0.121 A 
ATOM     36  C   UNL     1       3.777   1.151  -1.888  1.00  0.00     0.013 A 
ATOM     37  N   UNL     1       3.344   3.573  -0.642  1.00  0.00    -0.264 NA
ATOM     38  C   UNL     1       3.035   2.146  -2.527  1.00  0.00     0.021 A 
ATOM     39  C   UNL     1       2.828   3.364  -1.881  1.00  0.00     0.111 A 
ENDBRANCH  32  34
ENDBRANCH  26  28
ENDBRANCH   3  26
TORSDOF 7
