REMARK SMILES CC/C=C\C/C=C\C/C=C\CCCCCCCC(=O)O
REMARK SMILES IDX 12 1 11 2 10 3 9 4 8 5 7 6 6 7 5 8 4 9 3 10 2 11 1 12 13 13
REMARK SMILES IDX 14 14 15 15 16 16 17 17 18 18 19 19 20 20
REMARK H PARENT 20 21
REMARK Flexibility Score: inf
ROOT
ATOM      1  C   UNL     1       1.310  -0.157  -0.937  1.00  0.00     0.004 C 
ENDROOT
BRANCH   1   2
ATOM      2  C   UNL     1       0.247   0.953  -0.873  1.00  0.00     0.027 C 
BRANCH   2   3
ATOM      3  C   UNL     1      -0.137   1.293   0.547  1.00  0.00    -0.031 C 
ATOM      4  C   UNL     1      -1.065   0.634   1.263  1.00  0.00    -0.027 C 
BRANCH   4   5
ATOM      5  C   UNL     1      -1.888  -0.508   0.718  1.00  0.00     0.054 C 
BRANCH   5   6
ATOM      6  C   UNL     1      -2.866  -1.015   1.746  1.00  0.00    -0.027 C 
ATOM      7  C   UNL     1      -3.999  -0.379   2.099  1.00  0.00    -0.027 C 
BRANCH   7   8
ATOM      8  C   UNL     1      -4.471   0.925   1.504  1.00  0.00     0.054 C 
BRANCH   8   9
ATOM      9  C   UNL     1      -4.973   0.753   0.091  1.00  0.00    -0.027 C 
ATOM     10  C   UNL     1      -6.089   0.082  -0.255  1.00  0.00    -0.031 C 
BRANCH  10  11
ATOM     11  C   UNL     1      -6.994  -0.645   0.708  1.00  0.00     0.023 C 
ATOM     12  C   UNL     1      -6.745  -2.148   0.646  1.00  0.00     0.008 C 
ENDBRANCH  10  11
ENDBRANCH   8   9
ENDBRANCH   7   8
ENDBRANCH   5   6
ENDBRANCH   4   5
ENDBRANCH   2   3
ENDBRANCH   1   2
BRANCH   1  13
ATOM     13  C   UNL     1       2.669   0.240  -0.328  1.00  0.00     0.000 C 
BRANCH  13  14
ATOM     14  C   UNL     1       3.473   1.176  -1.247  1.00  0.00     0.000 C 
BRANCH  14  15
ATOM     15  C   UNL     1       4.798   1.644  -0.618  1.00  0.00     0.001 C 
BRANCH  15  16
ATOM     16  C   UNL     1       5.804   0.522  -0.301  1.00  0.00     0.012 C 
BRANCH  16  17
ATOM     17  C   UNL     1       6.221  -0.280  -1.541  1.00  0.00     0.122 C 
BRANCH  17  18
ATOM     18  C   UNL     1       7.347  -1.207  -1.210  1.00  0.00     0.303 C 
ATOM     19  O   UNL     1       7.111  -2.325  -0.679  1.00  0.00    -0.252 OA
BRANCH  18  20
ATOM     20  O   UNL     1       8.661  -0.812  -1.443  1.00  0.00    -0.481 OA
ATOM     21  H   UNL     1       9.436  -1.421  -1.211  1.00  0.00     0.296 HD
ENDBRANCH  18  20
ENDBRANCH  17  18
ENDBRANCH  16  17
ENDBRANCH  15  16
ENDBRANCH  14  15
ENDBRANCH  13  14
ENDBRANCH   1  13
TORSDOF 14
