REMARK SMILES Cc1ccc(S(=O)(=O)NC(=O)NN2CCCCCC2)cc1
REMARK SMILES IDX 13 1 12 2 9 3 10 4 11 6 6 8 7 9 8 10 5 11 1 12 2 13 3 14
REMARK SMILES IDX 21 15 4 16 20 17 14 18 15 19 16 20 19 22 18 23 17 24
REMARK H PARENT 9 5 12 7
REMARK Flexibility Score: 90.00
ROOT
ATOM      1  N   UNL     1      -2.305  -0.511   0.458  1.00  0.00    -0.220 NA
ENDROOT
BRANCH   1   2
ATOM      2  N   UNL     1      -1.371  -1.556   0.602  1.00  0.00    -0.270 N 
ATOM      3  N   UNL     1       0.787  -2.608  -0.002  1.00  0.00    -0.230 N 
ATOM      4  C   UNL     1      -0.147  -1.533  -0.136  1.00  0.00     0.343 C 
ATOM      5  H   UNL     1       0.562  -3.415   0.620  1.00  0.00     0.185 HD
ATOM      6  O   UNL     1       0.104  -0.565  -0.904  1.00  0.00    -0.246 OA
ATOM      7  H   UNL     1      -1.576  -2.366   1.232  1.00  0.00     0.187 HD
BRANCH   3   8
ATOM      8  S   UNL     1       2.293  -2.615  -0.859  1.00  0.00     0.265 S 
ATOM      9  O   UNL     1       2.017  -2.648  -2.337  1.00  0.00    -0.201 OA
ATOM     10  O   UNL     1       3.078  -3.840  -0.483  1.00  0.00    -0.201 OA
BRANCH   8  11
ATOM     11  C   UNL     1       3.222  -1.183  -0.427  1.00  0.00     0.087 A 
ATOM     12  C   UNL     1       5.479   2.320   0.675  1.00  0.00     0.044 C 
ATOM     13  C   UNL     1       4.671   1.116   0.292  1.00  0.00    -0.051 A 
ATOM     14  C   UNL     1       4.458   0.808  -1.061  1.00  0.00     0.005 A 
ATOM     15  C   UNL     1       4.177   0.252   1.282  1.00  0.00     0.005 A 
ATOM     16  C   UNL     1       3.733  -0.333  -1.418  1.00  0.00     0.022 A 
ATOM     17  C   UNL     1       3.451  -0.888   0.923  1.00  0.00     0.022 A 
ENDBRANCH   8  11
ENDBRANCH   3   8
ENDBRANCH   1   2
BRANCH   1  18
ATOM     18  C   UNL     1      -3.519  -1.060  -0.176  1.00  0.00     0.108 C 
BRANCH  18  19
ATOM     19  C   UNL     1      -4.694  -0.066  -0.211  1.00  0.00     0.018 C 
BRANCH  19  20
ATOM     20  C   UNL     1      -4.306   1.362  -0.637  1.00  0.00     0.001 CG0
ATOM     21  G   UNL     1      -3.224   2.050   0.229  1.00  0.00     0.000 G0
ENDBRANCH  19  20
ENDBRANCH  18  19
ENDBRANCH   1  18
BRANCH   1  22
ATOM     22  C   UNL     1      -2.563   0.084   1.784  1.00  0.00     0.108 C 
BRANCH  22  23
ATOM     23  C   UNL     1      -3.128   1.522   1.674  1.00  0.00     0.018 C 
BRANCH  23  24
ATOM     24  C   UNL     1      -3.224   2.050   0.229  1.00  0.00     0.001 CG0
ATOM     25  G   UNL     1      -4.306   1.362  -0.637  1.00  0.00     0.000 G0
ENDBRANCH  23  24
ENDBRANCH  22  23
ENDBRANCH   1  22
TORSDOF 3
