REMARK SMILES CCOC(=O)C1(c2ccccc2)CCN(C)CC1
REMARK SMILES IDX 4 1 5 2 3 3 2 4 1 5 6 6 13 7 18 8 14 9 17 10 15 11 16 12
REMARK SMILES IDX 7 13 8 14 12 15 9 16 11 17 10 18
REMARK H PARENT
REMARK Flexibility Score: inf
ROOT
ATOM      1  C   UNL     1      -0.068   1.625  -0.087  1.00  0.00     0.316 C 
ATOM      2  O   UNL     1       0.173   2.493   0.799  1.00  0.00    -0.251 OA
ENDROOT
BRANCH   1   3
ATOM      3  O   UNL     1      -0.854   1.956  -1.199  1.00  0.00    -0.465 OA
BRANCH   3   4
ATOM      4  C   UNL     1      -1.500   3.216  -1.358  1.00  0.00     0.229 C 
ATOM      5  C   UNL     1      -2.728   3.304  -0.458  1.00  0.00     0.049 C 
ENDBRANCH   3   4
ENDBRANCH   1   3
BRANCH   1   6
ATOM      6  C   UNL     1       0.433   0.202   0.063  1.00  0.00     0.095 C 
ATOM      7  C   UNL     1       1.479   0.107   1.213  1.00  0.00     0.039 C 
ATOM      8  C   UNL     1       1.189  -0.173  -1.245  1.00  0.00     0.039 C 
ATOM      9  C   UNL     1       2.141  -1.279   1.272  1.00  0.00     0.085 C 
ATOM     10  C   UNL     1       1.906  -1.539  -1.156  1.00  0.00     0.085 C 
ATOM     11  N   UNL     1       2.810  -1.642   0.007  1.00  0.00    -0.306 NA
ATOM     12  C   UNL     1       4.081  -0.926  -0.196  1.00  0.00     0.105 C 
BRANCH   6  13
ATOM     13  C   UNL     1      -0.808  -0.671   0.361  1.00  0.00    -0.031 A 
ATOM     14  C   UNL     1      -1.487  -0.517   1.594  1.00  0.00     0.005 A 
ATOM     15  C   UNL     1      -1.387  -1.540  -0.596  1.00  0.00     0.005 A 
ATOM     16  C   UNL     1      -2.635  -1.257   1.885  1.00  0.00     0.000 A 
ATOM     17  C   UNL     1      -2.535  -2.279  -0.296  1.00  0.00     0.000 A 
ATOM     18  C   UNL     1      -3.153  -2.145   0.945  1.00  0.00     0.000 A 
ENDBRANCH   6  13
ENDBRANCH   1   6
TORSDOF 4
