REMARK SMILES CN1[C@@H]2CC[C@H]1C[C@@H](OC(=O)C(CO)c1ccccc1)C2
REMARK SMILES IDX 10 1 11 2 9 3 8 4 1 5 2 6 6 7 3 8 5 9 7 10 4 11 21 12 12 13
REMARK SMILES IDX 13 14 14 15 15 17 16 18 20 19 17 20 19 21 18 22
REMARK H PARENT 14 16
REMARK Flexibility Score: inf
ROOT
ATOM      1  C   UNL     1       1.257  -0.317  -0.230  1.00  0.00     0.316 C 
ATOM      2  O   UNL     1       1.003  -1.173  -1.122  1.00  0.00    -0.251 OA
ENDROOT
BRANCH   1   3
ATOM      3  O   UNL     1       0.225   0.439   0.340  1.00  0.00    -0.462 OA
BRANCH   3   4
ATOM      4  C   UNL     1      -1.153   0.269   0.009  1.00  0.00     0.179 C 
ATOM      5  C   UNL     1      -5.264  -0.173  -0.132  1.00  0.00     0.105 C 
ATOM      6  N   UNL     1      -3.807  -0.014   0.024  1.00  0.00    -0.300 NA
ATOM      7  C   UNL     1      -3.450   1.184   0.793  1.00  0.00     0.060 C 
ATOM      8  C   UNL     1      -3.209  -1.076   0.843  1.00  0.00     0.060 C 
ATOM      9  C   UNL     1      -3.648   0.817   2.273  1.00  0.00     0.021 C 
ATOM     10  C   UNL     1      -1.956   1.505   0.505  1.00  0.00     0.064 C 
ATOM     11  C   UNL     1      -3.483  -0.694   2.307  1.00  0.00     0.021 C 
ATOM     12  C   UNL     1      -1.682  -1.091   0.557  1.00  0.00     0.064 C 
ENDBRANCH   3   4
ENDBRANCH   1   3
BRANCH   1  13
ATOM     13  C   UNL     1       2.669  -0.104   0.250  1.00  0.00     0.155 C 
BRANCH  13  14
ATOM     14  C   UNL     1       3.195  -1.301   1.065  1.00  0.00     0.176 C 
BRANCH  14  15
ATOM     15  O   UNL     1       3.212  -2.486   0.312  1.00  0.00    -0.395 OA
ATOM     16  H   UNL     1       2.332  -2.926   0.444  1.00  0.00     0.210 HD
ENDBRANCH  14  15
ENDBRANCH  13  14
BRANCH  13  17
ATOM     17  C   UNL     1       3.606   0.289  -0.884  1.00  0.00    -0.032 A 
ATOM     18  C   UNL     1       4.248   1.542  -0.854  1.00  0.00     0.005 A 
ATOM     19  C   UNL     1       3.857  -0.574  -1.971  1.00  0.00     0.005 A 
ATOM     20  C   UNL     1       5.116   1.921  -1.884  1.00  0.00     0.000 A 
ATOM     21  C   UNL     1       4.725  -0.189  -2.997  1.00  0.00     0.000 A 
ATOM     22  C   UNL     1       5.354   1.056  -2.954  1.00  0.00     0.000 A 
ENDBRANCH  13  17
ENDBRANCH   1  13
TORSDOF 6
