REMARK SMILES OC(c1cc(C(F)(F)F)nc2c(C(F)(F)F)cccc12)C1CCCCN1
REMARK SMILES IDX 3 1 4 2 5 3 10 4 11 5 20 6 19 7 18 8 17 9 12 10 2 11 1 12
REMARK SMILES IDX 21 14 22 15 26 16 23 17 25 18 24 20 6 21 7 22 8 23 9 24
REMARK SMILES IDX 13 25 14 26 15 27 16 28
REMARK H PARENT 1 13 26 19
REMARK Flexibility Score: inf
ROOT
ATOM      1  C   UNL     1      -0.362  -0.132   0.503  1.00  0.00    -0.006 A 
ATOM      2  C   UNL     1      -0.237   0.181  -0.867  1.00  0.00     0.040 A 
ATOM      3  C   UNL     1      -1.365   0.272  -1.685  1.00  0.00     0.145 A 
ATOM      4  N   UNL     1      -2.596   0.063  -1.159  1.00  0.00    -0.243 NA
ATOM      5  C   UNL     1      -2.791  -0.236   0.152  1.00  0.00     0.083 A 
ATOM      6  C   UNL     1      -1.674  -0.339   1.025  1.00  0.00     0.007 A 
ATOM      7  C   UNL     1      -1.909  -0.644   2.383  1.00  0.00     0.011 A 
ATOM      8  C   UNL     1      -3.206  -0.842   2.854  1.00  0.00     0.001 A 
ATOM      9  C   UNL     1      -4.294  -0.742   1.992  1.00  0.00     0.015 A 
ATOM     10  C   UNL     1      -4.105  -0.439   0.634  1.00  0.00     0.082 A 
ENDROOT
BRANCH   1  11
ATOM     11  C   UNL     1       0.870  -0.224   1.422  1.00  0.00     0.162 C 
BRANCH  11  12
ATOM     12  O   UNL     1       0.838   0.784   2.404  1.00  0.00    -0.387 OA
ATOM     13  H   UNL     1       0.676   1.650   1.948  1.00  0.00     0.211 HD
ENDBRANCH  11  12
BRANCH  11  14
ATOM     14  C   UNL     1       2.283  -0.284   0.767  1.00  0.00     0.087 C 
ATOM     15  C   UNL     1       2.782   1.091   0.243  1.00  0.00     0.022 C 
ATOM     16  N   UNL     1       2.341  -1.308  -0.292  1.00  0.00    -0.311 NA
ATOM     17  C   UNL     1       3.697   0.950  -0.983  1.00  0.00     0.003 C 
ATOM     18  C   UNL     1       3.728  -1.578  -0.715  1.00  0.00     0.081 C 
ATOM     19  H   UNL     1       1.946  -2.205   0.078  1.00  0.00     0.123 HD
ATOM     20  C   UNL     1       4.575  -0.296  -0.866  1.00  0.00     0.015 C 
ENDBRANCH  11  14
ENDBRANCH   1  11
BRANCH   3  21
ATOM     21  C   UNL     1      -1.220   0.598  -3.143  1.00  0.00     0.433 C 
ATOM     22  F   UNL     1      -0.603   1.828  -3.286  1.00  0.00    -0.165 F 
ATOM     23  F   UNL     1      -0.452  -0.371  -3.762  1.00  0.00    -0.165 F 
ATOM     24  F   UNL     1      -2.460   0.646  -3.757  1.00  0.00    -0.165 F 
ENDBRANCH   3  21
BRANCH  10  25
ATOM     25  C   UNL     1      -5.290  -0.328  -0.302  1.00  0.00     0.418 C 
ATOM     26  F   UNL     1      -5.334   0.943  -0.845  1.00  0.00    -0.166 F 
ATOM     27  F   UNL     1      -6.488  -0.566   0.350  1.00  0.00    -0.166 F 
ATOM     28  F   UNL     1      -5.161  -1.252  -1.324  1.00  0.00    -0.166 F 
ENDBRANCH  10  25
TORSDOF 5
