REMARK SMILES CCCc1nn(C)c2c(=O)[nH]c(-c3cc(S(=O)(=O)N4CCN(C)CC4)ccc3OCC)nc12
REMARK SMILES IDX 4 1 5 2 6 3 7 4 8 5 33 6 32 7 12 8 11 9 9 10 10 11 3 13 2 14
REMARK SMILES IDX 1 15 13 16 14 17 28 18 15 19 27 20 26 21 29 22 30 23 31 24
REMARK SMILES IDX 16 25 17 26 18 27 19 28 20 29 25 30 21 31 24 32 22 33 23 34
REMARK H PARENT 11 12
REMARK Flexibility Score: inf
ROOT
ATOM      1  C   UNL     1      -4.916   1.088   0.232  1.00  0.00     0.089 A 
ATOM      2  N   UNL     1      -5.395   2.327  -0.046  1.00  0.00    -0.175 NA
ATOM      3  N   UNL     1      -4.355   3.139  -0.230  1.00  0.00    -0.261 N 
ATOM      4  C   UNL     1      -4.480   4.550  -0.573  1.00  0.00     0.174 C 
ATOM      5  C   UNL     1      -3.220   2.425  -0.087  1.00  0.00     0.152 A 
ATOM      6  C   UNL     1      -3.543   1.144   0.201  1.00  0.00     0.120 A 
ATOM      7  N   UNL     1      -2.616   0.177   0.378  1.00  0.00    -0.226 NA
ATOM      8  C   UNL     1      -1.293   0.515   0.276  1.00  0.00     0.144 A 
ATOM      9  N   UNL     1      -0.936   1.819  -0.005  1.00  0.00    -0.305 N 
ATOM     10  C   UNL     1      -1.882   2.790  -0.198  1.00  0.00     0.277 A 
ATOM     11  O   UNL     1      -1.543   3.973  -0.466  1.00  0.00    -0.267 OA
ATOM     12  H   UNL     1       0.071   2.090  -0.054  1.00  0.00     0.171 HD
ENDROOT
BRANCH   1  13
ATOM     13  C   UNL     1      -5.766  -0.126   0.463  1.00  0.00     0.060 C 
BRANCH  13  14
ATOM     14  C   UNL     1      -5.752  -1.071  -0.745  1.00  0.00     0.003 C 
ATOM     15  C   UNL     1      -6.430  -0.459  -1.970  1.00  0.00     0.004 C 
ENDBRANCH  13  14
ENDBRANCH   1  13
BRANCH   8  16
ATOM     16  C   UNL     1      -0.260  -0.538   0.456  1.00  0.00     0.061 A 
ATOM     17  C   UNL     1       0.910  -0.510  -0.325  1.00  0.00     0.037 A 
ATOM     18  C   UNL     1      -0.459  -1.598   1.370  1.00  0.00     0.130 A 
ATOM     19  C   UNL     1       1.877  -1.514  -0.201  1.00  0.00     0.083 A 
ATOM     20  C   UNL     1       0.524  -2.600   1.489  1.00  0.00     0.048 A 
ATOM     21  C   UNL     1       1.682  -2.553   0.713  1.00  0.00     0.025 A 
BRANCH  18  22
ATOM     22  O   UNL     1      -1.626  -1.612   2.156  1.00  0.00    -0.493 OA
BRANCH  22  23
ATOM     23  C   UNL     1      -2.102  -2.712   2.931  1.00  0.00     0.226 C 
ATOM     24  C   UNL     1      -2.631  -3.819   2.026  1.00  0.00     0.049 C 
ENDBRANCH  22  23
ENDBRANCH  18  22
BRANCH  19  25
ATOM     25  S   UNL     1       3.355  -1.460  -1.160  1.00  0.00     0.243 S 
ATOM     26  O   UNL     1       3.173  -0.531  -2.329  1.00  0.00    -0.207 OA
ATOM     27  O   UNL     1       3.643  -2.839  -1.685  1.00  0.00    -0.207 OA
BRANCH  25  28
ATOM     28  N   UNL     1       4.689  -0.919  -0.169  1.00  0.00    -0.195 NA
ATOM     29  C   UNL     1       4.315   0.315   0.554  1.00  0.00     0.118 C 
ATOM     30  C   UNL     1       5.932  -0.792  -0.967  1.00  0.00     0.118 C 
ATOM     31  C   UNL     1       5.560   1.093   0.987  1.00  0.00     0.101 C 
ATOM     32  C   UNL     1       6.237   0.664  -1.364  1.00  0.00     0.101 C 
ATOM     33  N   UNL     1       6.323   1.569  -0.190  1.00  0.00    -0.304 NA
ATOM     34  C   UNL     1       7.719   1.849   0.177  1.00  0.00     0.105 C 
ENDBRANCH  25  28
ENDBRANCH  19  25
ENDBRANCH   8  16
TORSDOF 7
