REMARK SMILES CCN(CC)CC(=O)OCC(=O)[C@@]1(O)CC[C@H]2[C@@H]3CCC4=CC(=O)CC[C@]4(C)[C@H]3[C@@H](O)C[C@@]21C
REMARK SMILES IDX 9 1 10 2 11 3 12 4 13 5 17 6 16 7 33 8 18 9 15 10 34 11
REMARK SMILES IDX 32 12 29 13 19 14 30 15 27 16 20 17 21 18 26 19 28 20 22 21
REMARK SMILES IDX 25 22 23 23 24 24 14 25 31 27 7 29 8 30 6 31 3 32 2 33 1 34
REMARK SMILES IDX 4 35 5 36
REMARK H PARENT 14 26 31 28
REMARK Flexibility Score: inf
ROOT
ATOM      1  O   UNL     1       4.007  -0.105  -1.281  1.00  0.00    -0.457 OA
ENDROOT
BRANCH   1   2
ATOM      2  C   UNL     1       2.639  -0.505  -1.227  1.00  0.00     0.311 C 
BRANCH   2   3
ATOM      3  C   UNL     1       1.747   0.711  -1.268  1.00  0.00     0.202 C 
ATOM      4  O   UNL     1       1.913   1.504  -2.185  1.00  0.00    -0.293 OA
BRANCH   3   5
ATOM      5  C   UNL     1       0.642   0.962  -0.235  1.00  0.00     0.132 C 
ATOM      6  C   UNL     1      -1.628   1.336   0.321  1.00  0.00     0.002 C 
ATOM      7  C   UNL     1      -1.030   2.734   0.336  1.00  0.00     0.008 C 
ATOM      8  C   UNL     1      -0.799   0.567  -0.724  1.00  0.00     0.009 C 
ATOM      9  C   UNL     1      -3.129   1.090   0.116  1.00  0.00    -0.000 C 
ATOM     10  C   UNL     1       0.477   2.484   0.087  1.00  0.00     0.044 C 
ATOM     11  C   UNL     1      -1.016   1.098  -2.190  1.00  0.00     0.015 C 
ATOM     12  C   UNL     1      -1.206  -0.949  -0.735  1.00  0.00     0.042 C 
ATOM     13  C   UNL     1      -3.454  -0.362   0.595  1.00  0.00     0.031 C 
ATOM     14  C   UNL     1      -4.031   2.083   0.847  1.00  0.00     0.009 C 
ATOM     15  C   UNL     1      -2.248  -1.379   0.339  1.00  0.00     0.119 C 
ATOM     16  C   UNL     1      -4.935  -0.775   0.212  1.00  0.00    -0.005 C 
ATOM     17  C   UNL     1      -5.479   1.846   0.417  1.00  0.00     0.032 C 
ATOM     18  C   UNL     1      -5.903   0.391   0.542  1.00  0.00    -0.060 C 
ATOM     19  C   UNL     1      -5.391  -2.013   1.061  1.00  0.00     0.020 C 
ATOM     20  C   UNL     1      -5.041  -1.092  -1.300  1.00  0.00     0.016 C 
ATOM     21  C   UNL     1      -7.208   0.159   0.793  1.00  0.00     0.047 C 
ATOM     22  C   UNL     1      -6.860  -2.395   0.838  1.00  0.00     0.081 C 
ATOM     23  C   UNL     1      -7.753  -1.199   0.919  1.00  0.00     0.155 C 
ATOM     24  O   UNL     1      -8.994  -1.358   1.053  1.00  0.00    -0.295 OA
BRANCH   5  25
ATOM     25  O   UNL     1       0.989   0.341   0.988  1.00  0.00    -0.381 OA
ATOM     26  H   UNL     1       0.721  -0.609   0.977  1.00  0.00     0.212 HD
ENDBRANCH   5  25
BRANCH  15  27
ATOM     27  O   UNL     1      -2.697  -2.670   0.030  1.00  0.00    -0.393 OA
ATOM     28  H   UNL     1      -1.940  -3.296   0.190  1.00  0.00     0.210 HD
ENDBRANCH  15  27
ENDBRANCH   3   5
ENDBRANCH   2   3
ENDBRANCH   1   2
BRANCH   1  29
ATOM     29  C   UNL     1       4.677   0.486  -0.205  1.00  0.00     0.320 C 
ATOM     30  O   UNL     1       4.129   0.571   0.928  1.00  0.00    -0.251 OA
BRANCH  29  31
ATOM     31  C   UNL     1       6.081   0.974  -0.390  1.00  0.00     0.207 C 
BRANCH  31  32
ATOM     32  N   UNL     1       7.048   0.049   0.237  1.00  0.00    -0.294 NA
BRANCH  32  33
ATOM     33  C   UNL     1       8.386   0.679   0.309  1.00  0.00     0.081 C 
ATOM     34  C   UNL     1       9.253  -0.004   1.365  1.00  0.00     0.021 C 
ENDBRANCH  32  33
BRANCH  32  35
ATOM     35  C   UNL     1       7.091  -1.259  -0.470  1.00  0.00     0.081 C 
ATOM     36  C   UNL     1       6.599  -2.359   0.463  1.00  0.00     0.021 C 
ENDBRANCH  32  35
ENDBRANCH  31  32
ENDBRANCH  29  31
ENDBRANCH   1  29
TORSDOF 10
