REMARK SMILES CCCCC[C@H](O)/C=C/[C@H]1[C@H](O)CC(=O)[C@@H]1CCCCCCC(=O)O
REMARK SMILES IDX 17 1 16 2 10 3 11 4 13 5 14 6 15 7 9 8 8 9 6 10 5 11 4 12
REMARK SMILES IDX 3 13 2 14 1 15 7 16 12 18 18 20 19 21 20 22 21 23 22 24
REMARK SMILES IDX 23 25 24 26 25 27
REMARK H PARENT 7 17 12 19 25 28
REMARK Flexibility Score: inf
ROOT
ATOM      1  C   UNL     1      -1.930  -0.719   1.186  1.00  0.00     0.012 C 
ENDROOT
BRANCH   1   2
ATOM      2  C   UNL     1      -0.648  -0.560   0.338  1.00  0.00     0.065 C 
ATOM      3  C   UNL     1       0.626  -0.709   1.204  1.00  0.00     0.051 C 
ATOM      4  C   UNL     1       1.149   0.723   1.484  1.00  0.00     0.129 C 
ATOM      5  C   UNL     1       0.574   1.622   0.389  1.00  0.00     0.108 C 
ATOM      6  C   UNL     1      -0.520   0.822  -0.213  1.00  0.00     0.139 C 
ATOM      7  O   UNL     1      -1.209   1.242  -1.129  1.00  0.00    -0.299 OA
BRANCH   3   8
ATOM      8  C   UNL     1       1.679  -1.570   0.531  1.00  0.00    -0.022 C 
ATOM      9  C   UNL     1       2.181  -1.298  -0.686  1.00  0.00     0.000 C 
BRANCH   9  10
ATOM     10  C   UNL     1       3.220  -2.189  -1.334  1.00  0.00     0.137 C 
BRANCH  10  11
ATOM     11  C   UNL     1       4.581  -2.182  -0.596  1.00  0.00     0.036 C 
BRANCH  11  12
ATOM     12  C   UNL     1       5.444  -0.917  -0.781  1.00  0.00     0.003 C 
BRANCH  12  13
ATOM     13  C   UNL     1       4.862   0.322  -0.080  1.00  0.00    -0.000 C 
BRANCH  13  14
ATOM     14  C   UNL     1       5.868   1.479   0.006  1.00  0.00    -0.003 C 
ATOM     15  C   UNL     1       6.179   2.091  -1.359  1.00  0.00     0.004 C 
ENDBRANCH  13  14
ENDBRANCH  12  13
ENDBRANCH  11  12
ENDBRANCH  10  11
BRANCH  10  16
ATOM     16  O   UNL     1       3.378  -1.888  -2.699  1.00  0.00    -0.389 OA
ATOM     17  H   UNL     1       3.511  -0.909  -2.789  1.00  0.00     0.211 HD
ENDBRANCH  10  16
ENDBRANCH   9  10
ENDBRANCH   3   8
BRANCH   4  18
ATOM     18  O   UNL     1       0.689   1.166   2.735  1.00  0.00    -0.392 OA
ATOM     19  H   UNL     1       1.253   0.722   3.420  1.00  0.00     0.210 HD
ENDBRANCH   4  18
ENDBRANCH   1   2
BRANCH   1  20
ATOM     20  C   UNL     1      -3.204  -0.762   0.328  1.00  0.00     0.001 C 
BRANCH  20  21
ATOM     21  C   UNL     1      -4.447  -0.990   1.201  1.00  0.00     0.000 C 
BRANCH  21  22
ATOM     22  C   UNL     1      -5.724  -1.238   0.376  1.00  0.00     0.001 C 
BRANCH  22  23
ATOM     23  C   UNL     1      -6.118  -0.094  -0.575  1.00  0.00     0.012 C 
BRANCH  23  24
ATOM     24  C   UNL     1      -6.391   1.226   0.157  1.00  0.00     0.122 C 
BRANCH  24  25
ATOM     25  C   UNL     1      -6.937   2.245  -0.792  1.00  0.00     0.303 C 
ATOM     26  O   UNL     1      -6.152   2.937  -1.495  1.00  0.00    -0.252 OA
BRANCH  25  27
ATOM     27  O   UNL     1      -8.312   2.400  -0.929  1.00  0.00    -0.481 OA
ATOM     28  H   UNL     1      -8.698   3.072  -1.581  1.00  0.00     0.296 HD
ENDBRANCH  25  27
ENDBRANCH  24  25
ENDBRANCH  23  24
ENDBRANCH  22  23
ENDBRANCH  21  22
ENDBRANCH  20  21
ENDBRANCH   1  20
TORSDOF 16
