REMARK SMILES CC[N+](CC)(CC)CCC(O)(c1ccccc1)C1CCCCC1
REMARK SMILES IDX 8 1 3 2 2 3 1 4 4 5 5 6 6 7 7 8 9 9 10 10 11 11 18 13 19 14
REMARK SMILES IDX 23 15 20 16 22 17 21 18 12 19 13 20 17 21 14 22 16 23 15 24
REMARK H PARENT 11 12
REMARK Flexibility Score: inf
ROOT
ATOM      1  C   UNL     1       1.357  -0.009   0.761  1.00  0.00     0.267 C 
ENDROOT
BRANCH   1   2
ATOM      2  N   UNL     1       2.735  -0.066   0.152  1.00  0.00    -0.324 N 
BRANCH   2   3
ATOM      3  C   UNL     1       3.026  -1.439  -0.392  1.00  0.00     0.260 C 
ATOM      4  C   UNL     1       3.027  -2.583   0.639  1.00  0.00     0.071 C 
ENDBRANCH   2   3
BRANCH   2   5
ATOM      5  C   UNL     1       3.708   0.294   1.242  1.00  0.00     0.260 C 
ATOM      6  C   UNL     1       5.195   0.313   0.839  1.00  0.00     0.071 C 
ENDBRANCH   2   5
BRANCH   2   7
ATOM      7  C   UNL     1       2.849   0.895  -1.004  1.00  0.00     0.260 C 
ATOM      8  C   UNL     1       2.724   2.394  -0.667  1.00  0.00     0.071 C 
ENDBRANCH   2   7
ENDBRANCH   1   2
BRANCH   1   9
ATOM      9  C   UNL     1       0.192  -0.572  -0.111  1.00  0.00     0.102 C 
BRANCH   9  10
ATOM     10  C   UNL     1      -1.244  -0.137   0.349  1.00  0.00     0.098 C 
BRANCH  10  11
ATOM     11  O   UNL     1      -1.524  -0.717   1.606  1.00  0.00    -0.385 OA
ATOM     12  H   UNL     1      -0.840  -0.416   2.258  1.00  0.00     0.211 HD
ENDBRANCH  10  11
BRANCH  10  13
ATOM     13  C   UNL     1      -2.324  -0.675  -0.662  1.00  0.00     0.026 C 
ATOM     14  C   UNL     1      -3.781  -0.276  -0.261  1.00  0.00     0.007 C 
ATOM     15  C   UNL     1      -2.200  -2.208  -0.907  1.00  0.00     0.007 C 
ATOM     16  C   UNL     1      -4.543  -1.423   0.414  1.00  0.00     0.000 C 
ATOM     17  C   UNL     1      -3.489  -2.797  -1.489  1.00  0.00     0.000 C 
ATOM     18  C   UNL     1      -4.673  -2.644  -0.515  1.00  0.00     0.000 C 
ENDBRANCH  10  13
BRANCH  10  19
ATOM     19  C   UNL     1      -1.335   1.401   0.409  1.00  0.00    -0.016 A 
ATOM     20  C   UNL     1      -1.763   2.075   1.575  1.00  0.00     0.007 A 
ATOM     21  C   UNL     1      -1.016   2.177  -0.727  1.00  0.00     0.007 A 
ATOM     22  C   UNL     1      -1.840   3.470   1.607  1.00  0.00     0.000 A 
ATOM     23  C   UNL     1      -1.096   3.571  -0.688  1.00  0.00     0.000 A 
ATOM     24  C   UNL     1      -1.503   4.217   0.479  1.00  0.00     0.000 A 
ENDBRANCH  10  19
ENDBRANCH   9  10
ENDBRANCH   1   9
TORSDOF 9
