REMARK SMILES COc1ccc2[nH]c([S@@](=O)Cc3ncc(C)c(OC)c3C)nc2c1
REMARK SMILES IDX 11 1 9 2 10 3 8 4 3 5 24 6 4 7 23 8 5 9 6 10 22 11 7 12 2 14
REMARK SMILES IDX 1 15 12 16 13 17 20 18 14 19 17 20 21 21 15 22 16 23 18 24
REMARK SMILES IDX 19 25
REMARK H PARENT 7 13
REMARK Flexibility Score: inf
ROOT
ATOM      1  C   UNL     1      -0.756  -0.073   0.871  1.00  0.00     0.170 C 
ENDROOT
BRANCH   1   2
ATOM      2  S   UNL     1      -0.083   1.308  -0.079  1.00  0.00     0.095 S 
ATOM      3  O   UNL     1      -0.552   1.077  -1.508  1.00  0.00    -0.251 OA
BRANCH   2   4
ATOM      4  C   UNL     1       1.659   0.984  -0.149  1.00  0.00     0.197 A 
ATOM      5  C   UNL     1       5.859  -0.446  -0.603  1.00  0.00     0.121 A 
ATOM      6  C   UNL     1       4.531  -0.846  -0.860  1.00  0.00     0.077 A 
ATOM      7  C   UNL     1       6.107   0.819   0.003  1.00  0.00     0.049 A 
ATOM      8  C   UNL     1       3.502   0.022  -0.506  1.00  0.00     0.093 A 
ATOM      9  C   UNL     1       5.040   1.671   0.347  1.00  0.00     0.032 A 
ATOM     10  C   UNL     1       3.750   1.230   0.073  1.00  0.00     0.067 A 
ATOM     11  N   UNL     1       2.179  -0.163  -0.660  1.00  0.00    -0.220 NA
ATOM     12  N   UNL     1       2.590   1.855   0.308  1.00  0.00    -0.331 N 
ATOM     13  H   UNL     1       2.437   2.793   0.741  1.00  0.00     0.169 HD
BRANCH   5  14
ATOM     14  O   UNL     1       6.895  -1.321  -0.960  1.00  0.00    -0.497 OA
ATOM     15  C   UNL     1       8.278  -1.051  -0.761  1.00  0.00     0.278 C 
ENDBRANCH   5  14
ENDBRANCH   2   4
ENDBRANCH   1   2
BRANCH   1  16
ATOM     16  C   UNL     1      -2.250   0.067   0.993  1.00  0.00     0.060 A 
ATOM     17  N   UNL     1      -2.725   0.958   1.903  1.00  0.00    -0.259 NA
ATOM     18  C   UNL     1      -3.161  -0.648   0.174  1.00  0.00     0.014 A 
ATOM     19  C   UNL     1      -4.050   1.181   2.085  1.00  0.00     0.118 A 
ATOM     20  C   UNL     1      -4.544  -0.418   0.343  1.00  0.00     0.128 A 
ATOM     21  C   UNL     1      -2.672  -1.659  -0.836  1.00  0.00     0.050 C 
ATOM     22  C   UNL     1      -4.993   0.484   1.326  1.00  0.00     0.010 A 
ATOM     23  C   UNL     1      -6.458   0.751   1.534  1.00  0.00     0.050 C 
BRANCH  20  24
ATOM     24  O   UNL     1      -5.472  -1.096  -0.453  1.00  0.00    -0.496 OA
ATOM     25  C   UNL     1      -6.004  -0.509  -1.635  1.00  0.00     0.278 C 
ENDBRANCH  20  24
ENDBRANCH   1  16
TORSDOF 5
