REMARK SMILES N[C@@H](Cc1ccccc1)C(=O)O
REMARK SMILES IDX 2 1 1 2 3 5 4 6 5 7 9 8 6 9 8 10 7 11 10 12 11 13 12 14
REMARK H PARENT 1 3 1 4 12 15
REMARK Flexibility Score: inf
ROOT
ATOM      1  C   UNL     1      -1.575   0.066  -0.582  1.00  0.00     0.166 C 
ENDROOT
BRANCH   1   2
ATOM      2  N   UNL     1      -1.325   1.502  -0.736  1.00  0.00    -0.318 NA
ATOM      3  H   UNL     1      -1.864   1.849  -1.563  1.00  0.00     0.119 HD
ATOM      4  H   UNL     1      -1.678   2.012   0.106  1.00  0.00     0.119 HD
ENDBRANCH   1   2
BRANCH   1   5
ATOM      5  C   UNL     1      -0.753  -0.503   0.587  1.00  0.00     0.066 C 
BRANCH   5   6
ATOM      6  C   UNL     1       0.727  -0.373   0.333  1.00  0.00    -0.046 A 
ATOM      7  C   UNL     1       1.441   0.729   0.832  1.00  0.00     0.004 A 
ATOM      8  C   UNL     1       1.398  -1.331  -0.447  1.00  0.00     0.004 A 
ATOM      9  C   UNL     1       2.808   0.861   0.570  1.00  0.00     0.000 A 
ATOM     10  C   UNL     1       2.765  -1.196  -0.707  1.00  0.00     0.000 A 
ATOM     11  C   UNL     1       3.470  -0.102  -0.198  1.00  0.00     0.000 A 
ENDBRANCH   5   6
ENDBRANCH   1   5
BRANCH   1  12
ATOM     12  C   UNL     1      -3.042  -0.195  -0.365  1.00  0.00     0.320 C 
ATOM     13  O   UNL     1      -3.686  -0.896  -1.190  1.00  0.00    -0.251 OA
BRANCH  12  14
ATOM     14  O   UNL     1      -3.690   0.337   0.747  1.00  0.00    -0.480 OA
ATOM     15  H   UNL     1      -4.676   0.168   0.903  1.00  0.00     0.296 HD
ENDBRANCH  12  14
ENDBRANCH   1  12
TORSDOF 5
