REMARK SMILES NC(=O)OCC(COC(N)=O)c1ccccc1
REMARK SMILES IDX 6 1 5 2 4 3 2 4 1 5 3 8 7 9 8 10 9 11 10 12 11 13 12 16
REMARK SMILES IDX 13 17 17 18 14 19 16 20 15 21
REMARK H PARENT 1 6 1 7 10 14 10 15
REMARK Flexibility Score: inf
ROOT
ATOM      1  C   UNL     1       0.367  -0.400  -0.232  1.00  0.00     0.095 C 
ENDROOT
BRANCH   1   2
ATOM      2  C   UNL     1       1.073  -1.639   0.353  1.00  0.00     0.246 C 
BRANCH   2   3
ATOM      3  O   UNL     1       2.469  -1.626   0.049  1.00  0.00    -0.449 OA
BRANCH   3   4
ATOM      4  C   UNL     1       3.451  -1.132   0.914  1.00  0.00     0.404 C 
ATOM      5  N   UNL     1       4.812  -1.117   0.494  1.00  0.00    -0.335 N 
ATOM      6  H   UNL     1       5.558  -0.753   1.127  1.00  0.00     0.163 HD
ATOM      7  H   UNL     1       5.072  -1.468  -0.454  1.00  0.00     0.163 HD
ATOM      8  O   UNL     1       3.148  -0.705   2.062  1.00  0.00    -0.225 OA
ENDBRANCH   3   4
ENDBRANCH   2   3
ENDBRANCH   1   2
BRANCH   1   9
ATOM      9  C   UNL     1       0.813   0.903   0.463  1.00  0.00     0.246 C 
BRANCH   9  10
ATOM     10  O   UNL     1       0.059   2.021  -0.007  1.00  0.00    -0.449 OA
BRANCH  10  11
ATOM     11  C   UNL     1       0.237   2.597  -1.270  1.00  0.00     0.404 C 
ATOM     12  N   UNL     1      -0.612   3.664  -1.680  1.00  0.00    -0.335 N 
ATOM     13  O   UNL     1       1.143   2.186  -2.045  1.00  0.00    -0.225 OA
ATOM     14  H   UNL     1      -1.365   4.009  -1.045  1.00  0.00     0.163 HD
ATOM     15  H   UNL     1      -0.492   4.106  -2.619  1.00  0.00     0.163 HD
ENDBRANCH  10  11
ENDBRANCH   9  10
ENDBRANCH   1   9
BRANCH   1  16
ATOM     16  C   UNL     1      -1.141  -0.564  -0.159  1.00  0.00    -0.038 A 
ATOM     17  C   UNL     1      -1.798  -0.701   1.079  1.00  0.00     0.004 A 
ATOM     18  C   UNL     1      -1.907  -0.563  -1.340  1.00  0.00     0.004 A 
ATOM     19  C   UNL     1      -3.188  -0.839   1.131  1.00  0.00     0.000 A 
ATOM     20  C   UNL     1      -3.297  -0.701  -1.281  1.00  0.00     0.000 A 
ATOM     21  C   UNL     1      -3.937  -0.839  -0.048  1.00  0.00     0.000 A 
ENDBRANCH   1  16
TORSDOF 7
