REMARK SMILES CN(C)CCCC1(c2ccc(F)cc2)OCc2cc(C#N)ccc21
REMARK SMILES IDX 5 1 4 2 2 3 1 4 3 5 6 6 7 7 15 8 24 9 16 10 17 11 23 12
REMARK SMILES IDX 18 13 22 14 19 15 8 16 9 17 14 18 10 19 13 20 11 21 12 22
REMARK SMILES IDX 20 23 21 24
REMARK H PARENT
REMARK Flexibility Score: inf
ROOT
ATOM      1  C   UNL     1       1.767  -0.174   0.254  1.00  0.00     0.019 C 
ENDROOT
BRANCH   1   2
ATOM      2  C   UNL     1       3.083   0.436  -0.248  1.00  0.00     0.084 C 
BRANCH   2   3
ATOM      3  N   UNL     1       4.223  -0.453   0.065  1.00  0.00    -0.309 NA
ATOM      4  C   UNL     1       4.701  -0.239   1.442  1.00  0.00     0.104 C 
ATOM      5  C   UNL     1       5.329  -0.212  -0.877  1.00  0.00     0.104 C 
ENDBRANCH   2   3
ENDBRANCH   1   2
BRANCH   1   6
ATOM      6  C   UNL     1       0.561   0.678  -0.177  1.00  0.00     0.047 C 
BRANCH   6   7
ATOM      7  C   UNL     1      -0.786   0.130   0.362  1.00  0.00     0.119 C 
ATOM      8  O   UNL     1      -0.748   0.209   1.789  1.00  0.00    -0.361 OA
ATOM      9  C   UNL     1      -1.904   1.016  -0.068  1.00  0.00    -0.006 A 
ATOM     10  C   UNL     1      -1.780   1.083   2.227  1.00  0.00     0.198 C 
ATOM     11  C   UNL     1      -2.478   1.563   1.026  1.00  0.00    -0.015 A 
ATOM     12  C   UNL     1      -2.362   1.323  -1.356  1.00  0.00     0.009 A 
ATOM     13  C   UNL     1      -3.554   2.447   0.934  1.00  0.00     0.026 A 
ATOM     14  C   UNL     1      -3.445   2.208  -1.489  1.00  0.00     0.020 A 
ATOM     15  C   UNL     1      -4.044   2.771  -0.343  1.00  0.00     0.052 A 
BRANCH   7  16
ATOM     16  C   UNL     1      -1.078  -1.309  -0.078  1.00  0.00    -0.012 A 
ATOM     17  C   UNL     1      -1.655  -2.232   0.821  1.00  0.00     0.010 A 
ATOM     18  C   UNL     1      -0.855  -1.727  -1.409  1.00  0.00     0.010 A 
ATOM     19  C   UNL     1      -1.958  -3.534   0.414  1.00  0.00     0.039 A 
ATOM     20  C   UNL     1      -1.159  -3.031  -1.809  1.00  0.00     0.039 A 
ATOM     21  C   UNL     1      -1.706  -3.935  -0.898  1.00  0.00     0.123 A 
ATOM     22  F   UNL     1      -2.002  -5.199  -1.290  1.00  0.00    -0.207 F 
ENDBRANCH   7  16
BRANCH  15  23
ATOM     23  C   UNL     1      -5.152   3.679  -0.481  1.00  0.00     0.099 C 
ATOM     24  N   UNL     1      -6.044   4.409  -0.592  1.00  0.00    -0.192 NA
ENDBRANCH  15  23
ENDBRANCH   6   7
ENDBRANCH   1   6
TORSDOF 6
