REMARK SMILES CCC(=O)c1ccc2c(c1)N(CC(C)N(C)C)c1ccccc1S2
REMARK SMILES IDX 5 1 10 2 9 3 8 4 24 5 23 6 22 7 21 8 20 9 19 10 18 11 11 12
REMARK SMILES IDX 7 13 6 14 3 15 4 16 2 17 1 18 12 19 13 20 14 21 15 22 16 23
REMARK SMILES IDX 17 24
REMARK H PARENT
REMARK Flexibility Score: inf
ROOT
ATOM      1  C   UNL     1       3.074  -0.222   0.650  1.00  0.00     0.020 A 
ATOM      2  C   UNL     1       1.773   0.320   0.676  1.00  0.00     0.039 A 
ATOM      3  C   UNL     1       0.659  -0.476   0.367  1.00  0.00     0.056 A 
ATOM      4  C   UNL     1       0.847  -1.829   0.036  1.00  0.00     0.036 A 
ATOM      5  S   UNL     1      -0.564  -2.815  -0.479  1.00  0.00    -0.086 SA
ATOM      6  C   UNL     1      -1.602  -2.229   0.864  1.00  0.00     0.036 A 
ATOM      7  C   UNL     1      -2.400  -3.125   1.582  1.00  0.00     0.017 A 
ATOM      8  C   UNL     1      -3.262  -2.650   2.574  1.00  0.00     0.001 A 
ATOM      9  C   UNL     1      -3.317  -1.282   2.859  1.00  0.00     0.002 A 
ATOM     10  C   UNL     1      -2.502  -0.386   2.161  1.00  0.00     0.027 A 
ATOM     11  C   UNL     1      -1.643  -0.852   1.151  1.00  0.00     0.055 A 
ATOM     12  N   UNL     1      -0.684   0.027   0.528  1.00  0.00    -0.338 N 
ATOM     13  C   UNL     1       2.128  -2.384   0.042  1.00  0.00     0.018 A 
ATOM     14  C   UNL     1       3.234  -1.586   0.343  1.00  0.00     0.013 A 
ENDROOT
BRANCH   1  15
ATOM     15  C   UNL     1       4.264   0.611   0.968  1.00  0.00     0.162 C 
ATOM     16  O   UNL     1       5.355   0.044   1.249  1.00  0.00    -0.294 OA
BRANCH  15  17
ATOM     17  C   UNL     1       4.180   2.119   1.005  1.00  0.00     0.077 C 
ATOM     18  C   UNL     1       5.549   2.791   0.893  1.00  0.00     0.012 C 
ENDBRANCH  15  17
ENDBRANCH   1  15
BRANCH  12  19
ATOM     19  C   UNL     1      -1.103   1.301  -0.082  1.00  0.00     0.141 C 
BRANCH  19  20
ATOM     20  C   UNL     1      -1.460   1.136  -1.585  1.00  0.00     0.072 C 
ATOM     21  C   UNL     1      -0.158   0.960  -2.400  1.00  0.00     0.026 C 
BRANCH  20  22
ATOM     22  N   UNL     1      -2.431   0.017  -1.789  1.00  0.00    -0.305 NA
ATOM     23  C   UNL     1      -3.772   0.385  -1.290  1.00  0.00     0.105 C 
ATOM     24  C   UNL     1      -2.564  -0.373  -3.208  1.00  0.00     0.105 C 
ENDBRANCH  20  22
ENDBRANCH  19  20
ENDBRANCH  12  19
TORSDOF 5
