REMARK SMILES CC(=O)[C@H]1CC[C@H]2[C@@H]3C=CC4=CC(=O)CC[C@@]4(C)[C@@H]3CC[C@]12C
REMARK SMILES IDX 7 1 6 2 5 3 4 4 22 5 23 6 21 7 20 8 19 9 8 10 9 11 10 12
REMARK SMILES IDX 11 13 12 14 13 15 14 16 15 17 16 18 17 19 18 20 2 21 1 22
REMARK SMILES IDX 3 23
REMARK H PARENT
REMARK Flexibility Score: inf
ROOT
ATOM      1  C   UNL     1       1.173   0.862  -0.792  1.00  0.00     0.003 C 
ATOM      2  C   UNL     1       2.005   1.528  -1.886  1.00  0.00     0.005 C 
ATOM      3  C   UNL     1       3.452   1.099  -1.590  1.00  0.00     0.012 C 
ATOM      4  C   UNL     1       3.375   0.076  -0.436  1.00  0.00     0.062 C 
ATOM      5  C   UNL     1       1.917  -0.447  -0.466  1.00  0.00    -0.019 C 
ATOM      6  C   UNL     1       1.741  -1.532  -1.577  1.00  0.00     0.012 C 
ATOM      7  C   UNL     1       1.407  -1.014   0.893  1.00  0.00     0.008 C 
ATOM      8  C   UNL     1      -0.009  -0.515   1.282  1.00  0.00     0.006 C 
ATOM      9  C   UNL     1      -0.971  -0.279   0.069  1.00  0.00     0.006 C 
ATOM     10  C   UNL     1      -0.331   0.630  -1.058  1.00  0.00     0.019 C 
ATOM     11  C   UNL     1      -1.054   1.932  -1.293  1.00  0.00    -0.023 C 
ATOM     12  C   UNL     1      -2.380   1.991  -1.237  1.00  0.00     0.000 C 
ATOM     13  C   UNL     1      -3.139   0.907  -0.598  1.00  0.00    -0.039 C 
ATOM     14  C   UNL     1      -4.457   0.808  -0.833  1.00  0.00     0.051 C 
ATOM     15  C   UNL     1      -5.308  -0.130  -0.085  1.00  0.00     0.156 C 
ATOM     16  O   UNL     1      -6.533  -0.217  -0.363  1.00  0.00    -0.295 OA
ATOM     17  C   UNL     1      -4.744  -0.929   1.049  1.00  0.00     0.081 C 
ATOM     18  C   UNL     1      -3.248  -1.182   0.834  1.00  0.00     0.020 C 
ATOM     19  C   UNL     1      -2.445   0.121   0.513  1.00  0.00    -0.004 C 
ATOM     20  C   UNL     1      -2.439   1.042   1.763  1.00  0.00     0.017 C 
ENDROOT
BRANCH   4  21
ATOM     21  C   UNL     1       4.459  -0.985  -0.491  1.00  0.00     0.133 C 
ATOM     22  C   UNL     1       5.237  -1.328   0.744  1.00  0.00     0.088 C 
ATOM     23  O   UNL     1       4.728  -1.547  -1.543  1.00  0.00    -0.300 OA
ENDBRANCH   4  21
TORSDOF 1
