REMARK SMILES CCN(CC)C(=O)/C(C#N)=C/c1cc(O)c(O)c([N+](=O)[O-])c1
REMARK SMILES IDX 8 1 11 2 6 3 3 4 7 5 2 6 1 7 4 8 5 9 9 10 10 11 12 12 22 13
REMARK SMILES IDX 13 14 18 15 14 16 16 17 19 18 21 19 20 20 15 21 17 23
REMARK H PARENT 15 22 17 24
REMARK Flexibility Score: inf
ROOT
ATOM      1  C   UNL     1      -0.019   0.852  -1.199  1.00  0.00     0.117 C 
ATOM      2  C   UNL     1       0.333   0.034  -0.188  1.00  0.00     0.033 C 
ENDROOT
BRANCH   1   3
ATOM      3  C   UNL     1      -0.923   0.379  -2.272  1.00  0.00     0.264 C 
ATOM      4  N   UNL     1      -1.849  -0.702  -2.054  1.00  0.00    -0.339 N 
ATOM      5  O   UNL     1      -0.873   0.928  -3.407  1.00  0.00    -0.268 OA
BRANCH   4   6
ATOM      6  C   UNL     1      -2.844  -0.605  -0.978  1.00  0.00     0.116 C 
ATOM      7  C   UNL     1      -4.108   0.082  -1.483  1.00  0.00     0.027 C 
ENDBRANCH   4   6
BRANCH   4   8
ATOM      8  C   UNL     1      -1.955  -1.774  -3.052  1.00  0.00     0.116 C 
ATOM      9  C   UNL     1      -0.725  -2.672  -2.996  1.00  0.00     0.027 C 
ENDBRANCH   4   8
ENDBRANCH   1   3
BRANCH   1  10
ATOM     10  C   UNL     1       0.452   2.218  -1.265  1.00  0.00     0.105 C 
ATOM     11  N   UNL     1       0.827   3.311  -1.319  1.00  0.00    -0.192 NA
ENDBRANCH   1  10
BRANCH   2  12
ATOM     12  C   UNL     1       1.228   0.408   0.931  1.00  0.00    -0.013 A 
ATOM     13  C   UNL     1       0.860   0.071   2.237  1.00  0.00     0.098 A 
ATOM     14  C   UNL     1       2.467   1.022   0.705  1.00  0.00     0.058 A 
ATOM     15  C   UNL     1       1.688   0.384   3.330  1.00  0.00     0.315 A 
ATOM     16  C   UNL     1       3.316   1.338   1.769  1.00  0.00     0.165 A 
ATOM     17  C   UNL     1       2.931   1.019   3.096  1.00  0.00     0.237 A 
BRANCH  15  18
ATOM     18  N   UNL     1       1.259   0.045   4.666  1.00  0.00     0.066 N 
ATOM     19  O   UNL     1       1.827   0.639   5.769  1.00  0.00    -0.258 OA
ATOM     20  O   UNL     1       0.315  -0.753   4.842  1.00  0.00    -0.258 OA
ENDBRANCH  15  18
BRANCH  16  21
ATOM     21  O   UNL     1       4.528   1.959   1.460  1.00  0.00    -0.504 OA
ATOM     22  H   UNL     1       5.215   2.242   2.144  1.00  0.00     0.293 HD
ENDBRANCH  16  21
BRANCH  17  23
ATOM     23  O   UNL     1       3.762   1.299   4.184  1.00  0.00    -0.500 OA
ATOM     24  H   UNL     1       4.669   1.737   4.114  1.00  0.00     0.294 HD
ENDBRANCH  17  23
ENDBRANCH   2  12
TORSDOF 8
