REMARK SMILES CC1=CC(=O)c2ccccc2C1=O
REMARK SMILES IDX 1 1 2 2 3 3 4 4 5 5 6 6 7 7 8 8 9 9 10 10 11 11 12 12 13 13
REMARK H PARENT
REMARK Flexibility Score: inf
ROOT
ATOM      1  C   UNL     1       3.415  -0.151   0.252  1.00  0.00     0.049 C 
ATOM      2  C   UNL     1       1.952   0.154   0.079  1.00  0.00     0.001 C 
ATOM      3  C   UNL     1       1.550   1.419  -0.124  1.00  0.00     0.060 C 
ATOM      4  C   UNL     1       0.122   1.757  -0.265  1.00  0.00     0.186 C 
ATOM      5  O   UNL     1      -0.211   2.956  -0.465  1.00  0.00    -0.289 OA
ATOM      6  C   UNL     1      -0.902   0.694  -0.171  1.00  0.00     0.033 A 
ATOM      7  C   UNL     1      -2.270   0.987  -0.307  1.00  0.00     0.013 A 
ATOM      8  C   UNL     1      -3.221  -0.033  -0.212  1.00  0.00     0.001 A 
ATOM      9  C   UNL     1      -2.817  -1.349   0.020  1.00  0.00     0.001 A 
ATOM     10  C   UNL     1      -1.460  -1.652   0.158  1.00  0.00     0.013 A 
ATOM     11  C   UNL     1      -0.493  -0.635   0.063  1.00  0.00     0.033 A 
ATOM     12  C   UNL     1       0.952  -0.935   0.206  1.00  0.00     0.189 C 
ATOM     13  O   UNL     1       1.334  -2.115   0.438  1.00  0.00    -0.289 OA
ENDROOT
TORSDOF 0
