REMARK SMILES C[C@]12COC(=O)C[C@@H]1CC[C@@H]1[C@@H]2CC[C@@]2(C)[C@H]1CC[C@]2(C)O
REMARK SMILES IDX 17 1 18 2 19 3 20 4 21 5 15 6 16 7 14 8 13 9 12 10 11 11
REMARK SMILES IDX 10 12 9 13 8 14 7 15 5 16 6 17 4 18 3 19 2 20 1 21 22 22
REMARK H PARENT 22 23
REMARK Flexibility Score: inf
ROOT
ATOM      1  C   UNL     1       1.314   0.447   0.859  1.00  0.00     0.001 C 
ATOM      2  C   UNL     1       1.979   1.567   1.650  1.00  0.00     0.007 C 
ATOM      3  C   UNL     1       3.490   1.334   1.467  1.00  0.00     0.036 C 
ATOM      4  C   UNL     1       3.661   0.244   0.356  1.00  0.00     0.068 C 
ATOM      5  C   UNL     1       4.071  -1.094   1.013  1.00  0.00     0.042 C 
ATOM      6  C   UNL     1       2.250   0.199  -0.335  1.00  0.00    -0.001 C 
ATOM      7  C   UNL     1       2.171   1.336  -1.411  1.00  0.00     0.015 C 
ATOM      8  C   UNL     1       1.830  -1.145  -0.987  1.00  0.00     0.010 C 
ATOM      9  C   UNL     1       0.346  -1.125  -1.427  1.00  0.00     0.005 C 
ATOM     10  C   UNL     1      -0.626  -0.703  -0.278  1.00  0.00     0.002 C 
ATOM     11  C   UNL     1      -0.166   0.609   0.446  1.00  0.00    -0.004 C 
ATOM     12  C   UNL     1      -1.052   0.875   1.679  1.00  0.00     0.004 C 
ATOM     13  C   UNL     1      -2.531   0.959   1.294  1.00  0.00     0.005 C 
ATOM     14  C   UNL     1      -2.990  -0.328   0.582  1.00  0.00     0.010 C 
ATOM     15  C   UNL     1      -4.505  -0.286   0.309  1.00  0.00     0.127 C 
ATOM     16  C   UNL     1      -4.939  -1.423  -0.568  1.00  0.00     0.306 C 
ATOM     17  O   UNL     1      -6.160  -1.724  -0.631  1.00  0.00    -0.252 OA
ATOM     18  O   UNL     1      -4.030  -2.080  -1.401  1.00  0.00    -0.465 OA
ATOM     19  C   UNL     1      -2.615  -2.028  -1.213  1.00  0.00     0.240 C 
ATOM     20  C   UNL     1      -2.144  -0.640  -0.700  1.00  0.00     0.008 C 
ATOM     21  C   UNL     1      -2.386   0.408  -1.825  1.00  0.00     0.015 C 
ENDROOT
BRANCH   4  22
ATOM     22  O   UNL     1       4.690   0.564  -0.559  1.00  0.00    -0.390 OA
ATOM     23  H   UNL     1       4.707   1.542  -0.721  1.00  0.00     0.211 HD
ENDBRANCH   4  22
TORSDOF 1
