REMARK SMILES CN(C)CC[C@@H](c1ccc(Br)cc1)c1ccccn1
REMARK SMILES IDX 5 1 4 2 2 3 1 4 3 5 6 6 7 7 8 8 13 9 9 10 12 11 10 12 11 13
REMARK SMILES IDX 14 14 15 15 19 16 16 17 18 18 17 19
REMARK H PARENT
REMARK Flexibility Score: inf
ROOT
ATOM      1  C   UNL     1       1.043  -0.659  -0.851  1.00  0.00     0.030 C 
ENDROOT
BRANCH   1   2
ATOM      2  C   UNL     1       2.060   0.497  -0.823  1.00  0.00     0.085 C 
BRANCH   2   3
ATOM      3  N   UNL     1       2.629   0.690   0.529  1.00  0.00    -0.309 NA
ATOM      4  C   UNL     1       3.097   2.075   0.693  1.00  0.00     0.104 C 
ATOM      5  C   UNL     1       3.745  -0.240   0.773  1.00  0.00     0.104 C 
ENDBRANCH   2   3
ENDBRANCH   1   2
BRANCH   1   6
ATOM      6  C   UNL     1      -0.103  -0.483   0.177  1.00  0.00     0.069 C 
BRANCH   6   7
ATOM      7  C   UNL     1      -0.922   0.771  -0.073  1.00  0.00    -0.039 A 
ATOM      8  C   UNL     1      -0.988   1.774   0.912  1.00  0.00     0.005 A 
ATOM      9  C   UNL     1      -1.618   0.961  -1.283  1.00  0.00     0.005 A 
ATOM     10  C   UNL     1      -1.730   2.937   0.692  1.00  0.00     0.016 A 
ATOM     11  C   UNL     1      -2.360   2.126  -1.499  1.00  0.00     0.016 A 
ATOM     12  C   UNL     1      -2.417   3.114  -0.513  1.00  0.00     0.017 A 
ATOM     13  Br  UNL     1      -3.430   4.705  -0.811  1.00  0.00    -0.051 Br
ENDBRANCH   6   7
BRANCH   6  14
ATOM     14  C   UNL     1      -1.005  -1.696   0.281  1.00  0.00     0.048 A 
ATOM     15  C   UNL     1      -1.456  -2.403  -0.851  1.00  0.00     0.024 A 
ATOM     16  N   UNL     1      -1.438  -2.079   1.515  1.00  0.00    -0.261 NA
ATOM     17  C   UNL     1      -2.316  -3.490  -0.684  1.00  0.00     0.003 A 
ATOM     18  C   UNL     1      -2.276  -3.135   1.695  1.00  0.00     0.111 A 
ATOM     19  C   UNL     1      -2.729  -3.862   0.595  1.00  0.00     0.020 A 
ENDBRANCH   6  14
ENDBRANCH   1   6
TORSDOF 5
