REMARK SMILES CC(C)N=c1cc2n(-c3ccc(Cl)cc3)c3ccccc3nc-2cc1Nc1ccc(Cl)cc1
REMARK SMILES IDX 4 1 5 2 6 3 7 4 8 5 16 6 21 7 20 8 19 9 18 10 17 11 22 12
REMARK SMILES IDX 23 13 24 14 25 15 2 16 1 17 3 18 26 19 27 21 28 22 33 23
REMARK SMILES IDX 29 24 32 25 30 26 31 27 9 28 10 29 15 30 11 31 14 32 12 33
REMARK SMILES IDX 13 34
REMARK H PARENT 26 20
REMARK Flexibility Score: inf
ROOT
ATOM      1  N   UNL     1      -1.575  -2.083   0.652  1.00  0.00    -0.280 NA
ATOM      2  C   UNL     1      -1.041  -0.904   0.465  1.00  0.00     0.083 A 
ATOM      3  C   UNL     1       0.343  -0.742   0.225  1.00  0.00     0.059 A 
ATOM      4  C   UNL     1       0.902   0.535   0.028  1.00  0.00     0.074 A 
ATOM      5  N   UNL     1       2.243   0.745  -0.200  1.00  0.00    -0.306 N 
ATOM      6  C   UNL     1       2.718   2.030  -0.381  1.00  0.00     0.072 A 
ATOM      7  C   UNL     1       1.823   3.134  -0.332  1.00  0.00     0.088 A 
ATOM      8  C   UNL     1       2.296   4.439  -0.513  1.00  0.00     0.030 A 
ATOM      9  C   UNL     1       3.651   4.671  -0.744  1.00  0.00     0.002 A 
ATOM     10  C   UNL     1       4.544   3.602  -0.795  1.00  0.00     0.002 A 
ATOM     11  C   UNL     1       4.090   2.293  -0.615  1.00  0.00     0.029 A 
ATOM     12  N   UNL     1       0.501   2.938  -0.107  1.00  0.00    -0.245 NA
ATOM     13  C   UNL     1      -0.004   1.698   0.074  1.00  0.00     0.090 A 
ATOM     14  C   UNL     1      -1.363   1.515   0.306  1.00  0.00     0.059 A 
ATOM     15  C   UNL     1      -1.890   0.226   0.487  1.00  0.00     0.066 A 
ENDROOT
BRANCH   1  16
ATOM     16  C   UNL     1      -0.909  -3.389   0.686  1.00  0.00     0.100 C 
ATOM     17  C   UNL     1      -0.187  -3.584   2.025  1.00  0.00     0.033 C 
ATOM     18  C   UNL     1      -1.961  -4.481   0.493  1.00  0.00     0.033 C 
ENDBRANCH   1  16
BRANCH  15  19
ATOM     19  N   UNL     1      -3.296   0.062   0.755  1.00  0.00    -0.354 N 
ATOM     20  H   UNL     1      -3.580  -0.644   1.471  1.00  0.00     0.167 HD
BRANCH  19  21
ATOM     21  C   UNL     1      -4.334   0.818   0.106  1.00  0.00     0.039 A 
ATOM     22  C   UNL     1      -4.163   1.334  -1.192  1.00  0.00     0.027 A 
ATOM     23  C   UNL     1      -5.565   0.998   0.756  1.00  0.00     0.027 A 
ATOM     24  C   UNL     1      -5.196   2.045  -1.811  1.00  0.00     0.022 A 
ATOM     25  C   UNL     1      -6.596   1.710   0.135  1.00  0.00     0.022 A 
ATOM     26  C   UNL     1      -6.411   2.237  -1.147  1.00  0.00     0.041 A 
ATOM     27  Cl  UNL     1      -7.706   3.128  -1.925  1.00  0.00    -0.084 Cl
ENDBRANCH  19  21
ENDBRANCH  15  19
BRANCH   5  28
ATOM     28  C   UNL     1       3.148  -0.376  -0.242  1.00  0.00     0.046 A 
ATOM     29  C   UNL     1       3.732  -0.854   0.940  1.00  0.00     0.028 A 
ATOM     30  C   UNL     1       3.432  -1.006  -1.462  1.00  0.00     0.028 A 
ATOM     31  C   UNL     1       4.594  -1.953   0.901  1.00  0.00     0.022 A 
ATOM     32  C   UNL     1       4.296  -2.105  -1.499  1.00  0.00     0.022 A 
ATOM     33  C   UNL     1       4.877  -2.580  -0.318  1.00  0.00     0.041 A 
ATOM     34  Cl  UNL     1       5.958  -3.960  -0.365  1.00  0.00    -0.084 Cl
ENDBRANCH   5  28
TORSDOF 4
