REMARK SMILES CCCCCCC(C)(C)c1cc(O)c2c(c1)OC(C)(C)[C@@H]1CCC(=O)C[C@@H]21
REMARK SMILES IDX 6 1 7 2 8 3 9 4 10 5 27 6 26 7 21 8 14 9 24 10 22 11 18 12
REMARK SMILES IDX 15 13 12 14 25 15 23 16 19 17 20 18 17 19 16 20 11 21 13 22
REMARK SMILES IDX 5 24 4 25 3 26 2 27 1 28
REMARK H PARENT 13 23
REMARK Flexibility Score: inf
ROOT
ATOM      1  C   UNL     1       2.938  -0.561   0.184  1.00  0.00     0.011 C 
ENDROOT
BRANCH   1   2
ATOM      2  C   UNL     1       1.890   0.409   0.838  1.00  0.00    -0.010 C 
ATOM      3  C   UNL     1       2.111   1.842   0.298  1.00  0.00     0.016 C 
ATOM      4  C   UNL     1       2.085   0.402   2.375  1.00  0.00     0.016 C 
BRANCH   2   5
ATOM      5  C   UNL     1       0.432  -0.013   0.514  1.00  0.00    -0.035 A 
ATOM      6  C   UNL     1      -3.750  -1.120  -0.031  1.00  0.00     0.041 C 
ATOM      7  C   UNL     1      -4.237  -2.371  -0.820  1.00  0.00     0.084 C 
ATOM      8  C   UNL     1      -4.500   0.187  -0.404  1.00  0.00     0.041 C 
ATOM      9  C   UNL     1      -2.270  -0.767   0.018  1.00  0.00     0.040 A 
ATOM     10  C   UNL     1      -4.877  -2.007  -2.131  1.00  0.00     0.133 C 
ATOM     11  C   UNL     1      -5.944  -0.103  -0.867  1.00  0.00     0.016 C 
ATOM     12  C   UNL     1      -4.339   1.235   0.755  1.00  0.00     0.107 C 
ATOM     13  C   UNL     1      -1.969   0.361   0.804  1.00  0.00     0.127 A 
ATOM     14  C   UNL     1      -1.215  -1.420  -0.657  1.00  0.00     0.123 A 
ATOM     15  O   UNL     1      -4.595  -2.627  -3.144  1.00  0.00    -0.300 OA
ATOM     16  C   UNL     1      -5.910  -0.906  -2.181  1.00  0.00     0.076 C 
ATOM     17  C   UNL     1      -5.329   0.993   1.911  1.00  0.00     0.056 C 
ATOM     18  C   UNL     1      -4.553   2.660   0.213  1.00  0.00     0.056 C 
ATOM     19  O   UNL     1      -3.002   1.182   1.296  1.00  0.00    -0.487 OA
ATOM     20  C   UNL     1      -0.646   0.704   1.077  1.00  0.00     0.051 A 
ATOM     21  C   UNL     1       0.114  -1.053  -0.391  1.00  0.00     0.051 A 
BRANCH  14  22
ATOM     22  O   UNL     1      -1.458  -2.399  -1.617  1.00  0.00    -0.508 OA
ATOM     23  H   UNL     1      -0.708  -2.862  -2.116  1.00  0.00     0.293 HD
ENDBRANCH  14  22
ENDBRANCH   2   5
ENDBRANCH   1   2
BRANCH   1  24
ATOM     24  C   UNL     1       4.419  -0.311   0.538  1.00  0.00     0.001 C 
BRANCH  24  25
ATOM     25  C   UNL     1       5.335  -1.250  -0.263  1.00  0.00     0.000 C 
BRANCH  25  26
ATOM     26  C   UNL     1       6.806  -1.187   0.189  1.00  0.00    -0.000 C 
BRANCH  26  27
ATOM     27  C   UNL     1       7.478   0.186   0.015  1.00  0.00    -0.003 C 
ATOM     28  C   UNL     1       7.529   0.647  -1.442  1.00  0.00     0.004 C 
ENDBRANCH  26  27
ENDBRANCH  25  26
ENDBRANCH  24  25
ENDBRANCH   1  24
TORSDOF 7
