REMARK SMILES COc1cc2ncnc(Nc3ccc(F)c(Cl)c3)c2cc1OCCCN1CCOCC1
REMARK SMILES IDX 23 1 22 2 21 3 3 4 4 5 20 6 5 7 19 8 6 9 9 10 7 11 8 12 2 13
REMARK SMILES IDX 1 14 10 15 11 17 18 18 12 19 16 20 13 21 17 22 14 23 15 24
REMARK SMILES IDX 24 25 25 26 26 27 27 28 31 29 28 30 30 31 29 32
REMARK H PARENT 10 16
REMARK Flexibility Score: inf
ROOT
ATOM      1  C   UNL     1       1.164  -0.635   0.672  1.00  0.00     0.231 C 
ENDROOT
BRANCH   1   2
ATOM      2  O   UNL     1       0.967   0.776   0.737  1.00  0.00    -0.490 OA
BRANCH   2   3
ATOM      3  C   UNL     1      -0.261   1.424   0.530  1.00  0.00     0.162 A 
ATOM      4  C   UNL     1      -0.290   2.824   0.603  1.00  0.00     0.162 A 
ATOM      5  C   UNL     1      -1.505   3.507   0.410  1.00  0.00     0.079 A 
ATOM      6  C   UNL     1      -1.445   0.711   0.257  1.00  0.00     0.064 A 
ATOM      7  C   UNL     1      -2.680   2.801   0.140  1.00  0.00     0.080 A 
ATOM      8  C   UNL     1      -2.658   1.393   0.046  1.00  0.00     0.047 A 
ATOM      9  N   UNL     1      -3.847   3.475  -0.025  1.00  0.00    -0.236 NA
ATOM     10  C   UNL     1      -3.874   0.730  -0.230  1.00  0.00     0.141 A 
ATOM     11  C   UNL     1      -5.004   2.817  -0.282  1.00  0.00     0.224 A 
ATOM     12  N   UNL     1      -5.009   1.465  -0.388  1.00  0.00    -0.219 NA
BRANCH   4  13
ATOM     13  O   UNL     1       0.910   3.501   0.872  1.00  0.00    -0.493 OA
ATOM     14  C   UNL     1       1.034   4.916   0.975  1.00  0.00     0.278 C 
ENDBRANCH   4  13
BRANCH  10  15
ATOM     15  N   UNL     1      -3.931  -0.696  -0.409  1.00  0.00    -0.340 N 
ATOM     16  H   UNL     1      -3.150  -1.162  -0.924  1.00  0.00     0.168 HD
BRANCH  15  17
ATOM     17  C   UNL     1      -5.084  -1.489  -0.079  1.00  0.00     0.041 A 
ATOM     18  C   UNL     1      -5.313  -2.694  -0.764  1.00  0.00     0.049 A 
ATOM     19  C   UNL     1      -5.963  -1.110   0.952  1.00  0.00     0.029 A 
ATOM     20  C   UNL     1      -6.419  -3.492  -0.446  1.00  0.00     0.078 A 
ATOM     21  C   UNL     1      -7.066  -1.908   1.268  1.00  0.00     0.043 A 
ATOM     22  Cl  UNL     1      -6.693  -4.987  -1.323  1.00  0.00    -0.081 Cl
ATOM     23  C   UNL     1      -7.298  -3.096   0.569  1.00  0.00     0.141 A 
ATOM     24  F   UNL     1      -8.371  -3.863   0.886  1.00  0.00    -0.205 F 
ENDBRANCH  15  17
ENDBRANCH  10  15
ENDBRANCH   2   3
ENDBRANCH   1   2
BRANCH   1  25
ATOM     25  C   UNL     1       2.633  -0.970   0.931  1.00  0.00     0.057 C 
BRANCH  25  26
ATOM     26  C   UNL     1       3.547  -0.432  -0.183  1.00  0.00     0.088 C 
BRANCH  26  27
ATOM     27  N   UNL     1       4.975  -0.640   0.143  1.00  0.00    -0.299 NA
ATOM     28  C   UNL     1       5.857   0.139  -0.761  1.00  0.00     0.113 C 
ATOM     29  C   UNL     1       5.328  -2.081   0.169  1.00  0.00     0.113 C 
ATOM     30  C   UNL     1       6.444  -0.736  -1.884  1.00  0.00     0.175 C 
ATOM     31  C   UNL     1       6.822  -2.297  -0.128  1.00  0.00     0.175 C 
ATOM     32  O   UNL     1       7.218  -1.831  -1.410  1.00  0.00    -0.379 OA
ENDBRANCH  26  27
ENDBRANCH  25  26
ENDBRANCH   1  25
TORSDOF 8
