REMARK SMILES COC(=O)C1=C(C)NC(C)=C(C(=O)OC(C)(C)CN(C)CCC(c2ccccc2)c2ccccc2)C1c1cccc([N+](=O)[O-])c1
REMARK SMILES IDX 15 1 16 2 17 3 14 4 12 5 13 6 11 7 5 8 6 9 36 10 7 11 8 12
REMARK SMILES IDX 9 13 10 15 3 16 4 17 2 18 1 19 37 20 45 21 38 22 41 23 39 24
REMARK SMILES IDX 40 25 42 26 44 27 43 28 18 29 19 30 20 31 21 32 22 33 23 34
REMARK SMILES IDX 24 35 25 36 29 37 26 38 28 39 27 40 30 41 31 42 35 43 32 44
REMARK SMILES IDX 34 45 33 46
REMARK H PARENT 8 14
REMARK Flexibility Score: inf
ROOT
ATOM      1  C   UNL     1      -0.094  -1.351   1.221  1.00  0.00     0.119 C 
ATOM      2  C   UNL     1      -0.218  -0.744   2.637  1.00  0.00     0.058 C 
ATOM      3  C   UNL     1      -0.430  -2.855   1.254  1.00  0.00     0.058 C 
ENDROOT
BRANCH   1   4
ATOM      4  O   UNL     1      -0.972  -0.685   0.299  1.00  0.00    -0.455 OA
BRANCH   4   5
ATOM      5  C   UNL     1      -2.373  -0.619   0.393  1.00  0.00     0.337 C 
ATOM      6  O   UNL     1      -2.959  -1.031   1.430  1.00  0.00    -0.246 OA
BRANCH   5   7
ATOM      7  C   UNL     1      -3.181  -0.015  -0.703  1.00  0.00     0.068 C 
ATOM      8  C   UNL     1      -5.142   1.511  -1.359  1.00  0.00     0.068 C 
ATOM      9  C   UNL     1      -4.665   1.524  -2.627  1.00  0.00     0.023 C 
ATOM     10  C   UNL     1      -4.542   0.559  -0.334  1.00  0.00     0.098 C 
ATOM     11  C   UNL     1      -5.234   2.407  -3.707  1.00  0.00     0.065 C 
ATOM     12  N   UNL     1      -3.572   0.663  -2.979  1.00  0.00    -0.362 N 
ATOM     13  C   UNL     1      -2.799  -0.044  -1.998  1.00  0.00     0.023 C 
ATOM     14  H   UNL     1      -3.278   0.608  -3.981  1.00  0.00     0.166 HD
ATOM     15  C   UNL     1      -1.566  -0.775  -2.463  1.00  0.00     0.065 C 
BRANCH   8  16
ATOM     16  C   UNL     1      -6.316   2.316  -0.912  1.00  0.00     0.336 C 
ATOM     17  O   UNL     1      -7.161   2.754  -1.737  1.00  0.00    -0.246 OA
BRANCH  16  18
ATOM     18  O   UNL     1      -6.511   2.525   0.459  1.00  0.00    -0.466 OA
ATOM     19  C   UNL     1      -7.647   3.202   0.979  1.00  0.00     0.282 C 
ENDBRANCH  16  18
ENDBRANCH   8  16
BRANCH  10  20
ATOM     20  C   UNL     1      -5.522  -0.568  -0.059  1.00  0.00    -0.029 A 
ATOM     21  C   UNL     1      -6.059  -0.737   1.227  1.00  0.00     0.090 A 
ATOM     22  C   UNL     1      -5.909  -1.453  -1.080  1.00  0.00     0.005 A 
ATOM     23  C   UNL     1      -6.957  -1.783   1.505  1.00  0.00     0.269 A 
ATOM     24  C   UNL     1      -6.805  -2.489  -0.815  1.00  0.00     0.007 A 
ATOM     25  C   UNL     1      -7.323  -2.659   0.469  1.00  0.00     0.085 A 
BRANCH  23  26
ATOM     26  N   UNL     1      -7.487  -1.959   2.834  1.00  0.00     0.062 N 
ATOM     27  O   UNL     1      -8.327  -3.010   3.119  1.00  0.00    -0.258 OA
ATOM     28  O   UNL     1      -7.204  -1.153   3.747  1.00  0.00    -0.258 OA
ENDBRANCH  23  26
ENDBRANCH  10  20
ENDBRANCH   5   7
ENDBRANCH   4   5
ENDBRANCH   1   4
BRANCH   1  29
ATOM     29  C   UNL     1       1.363  -1.190   0.715  1.00  0.00     0.132 C 
BRANCH  29  30
ATOM     30  N   UNL     1       1.826   0.215   0.811  1.00  0.00    -0.302 NA
ATOM     31  C   UNL     1       1.578   0.985  -0.422  1.00  0.00     0.105 C 
BRANCH  30  32
ATOM     32  C   UNL     1       3.230   0.336   1.267  1.00  0.00     0.085 C 
BRANCH  32  33
ATOM     33  C   UNL     1       4.253  -0.354   0.330  1.00  0.00     0.028 C 
BRANCH  33  34
ATOM     34  C   UNL     1       5.712  -0.159   0.806  1.00  0.00     0.050 C 
BRANCH  34  35
ATOM     35  C   UNL     1       6.209   1.282   0.842  1.00  0.00    -0.040 A 
ATOM     36  C   UNL     1       5.719   2.283  -0.024  1.00  0.00     0.004 A 
ATOM     37  C   UNL     1       7.289   1.596   1.688  1.00  0.00     0.004 A 
ATOM     38  C   UNL     1       6.261   3.572   0.004  1.00  0.00     0.000 A 
ATOM     39  C   UNL     1       7.838   2.881   1.706  1.00  0.00     0.000 A 
ATOM     40  C   UNL     1       7.325   3.870   0.864  1.00  0.00     0.000 A 
ENDBRANCH  34  35
BRANCH  34  41
ATOM     41  C   UNL     1       6.660  -1.006  -0.023  1.00  0.00    -0.040 A 
ATOM     42  C   UNL     1       6.817  -0.770  -1.404  1.00  0.00     0.004 A 
ATOM     43  C   UNL     1       7.414  -2.027   0.585  1.00  0.00     0.004 A 
ATOM     44  C   UNL     1       7.708  -1.541  -2.155  1.00  0.00     0.000 A 
ATOM     45  C   UNL     1       8.303  -2.796  -0.169  1.00  0.00     0.000 A 
ATOM     46  C   UNL     1       8.450  -2.553  -1.538  1.00  0.00     0.000 A 
ENDBRANCH  34  41
ENDBRANCH  33  34
ENDBRANCH  32  33
ENDBRANCH  30  32
ENDBRANCH  29  30
ENDBRANCH   1  29
TORSDOF 14
