REMARK SMILES C[C@H]1C[C@H]2[C@@H]3CCC4=CC(=O)C=C[C@]4(C)[C@@]3(F)[C@@H](O)C[C@]2(C)[C@@]1(O)C(=O)CO
REMARK SMILES IDX 25 1 26 2 23 3 4 4 3 5 21 6 5 7 2 8 22 9 20 10 16 11 6 12
REMARK SMILES IDX 1 13 18 14 17 15 14 16 7 17 8 18 13 19 15 20 9 21 12 22
REMARK SMILES IDX 10 23 11 24 24 25 19 27 27 29 28 30
REMARK H PARENT 24 26 19 28 28 31
REMARK Flexibility Score: inf
ROOT
ATOM      1  C   UNL     1      -4.070  -0.661  -0.384  1.00  0.00     0.190 C 
ATOM      2  O   UNL     1      -4.291  -1.290   0.641  1.00  0.00    -0.294 OA
ENDROOT
BRANCH   1   3
ATOM      3  C   UNL     1      -2.844   0.283  -0.479  1.00  0.00     0.133 C 
ATOM      4  C   UNL     1      -0.589   0.841   0.140  1.00  0.00     0.005 C 
ATOM      5  C   UNL     1      -1.451   1.637   1.109  1.00  0.00     0.011 C 
ATOM      6  C   UNL     1      -1.438  -0.394  -0.203  1.00  0.00     0.010 C 
ATOM      7  C   UNL     1       0.870   0.507   0.542  1.00  0.00     0.035 C 
ATOM      8  C   UNL     1      -2.886   1.472   0.559  1.00  0.00     0.026 C 
ATOM      9  C   UNL     1      -1.533  -1.404   0.990  1.00  0.00     0.015 C 
ATOM     10  C   UNL     1      -0.763  -1.095  -1.418  1.00  0.00     0.045 C 
ATOM     11  C   UNL     1       1.576  -0.234  -0.657  1.00  0.00     0.152 C 
ATOM     12  C   UNL     1       1.635   1.798   0.912  1.00  0.00     0.012 C 
ATOM     13  C   UNL     1      -3.914   1.385   1.702  1.00  0.00     0.011 C 
ATOM     14  C   UNL     1       0.729  -1.461  -1.164  1.00  0.00     0.154 C 
ATOM     15  F   UNL     1       1.601   0.660  -1.724  1.00  0.00    -0.239 F 
ATOM     16  C   UNL     1       3.094  -0.560  -0.335  1.00  0.00     0.044 C 
ATOM     17  C   UNL     1       3.094   1.508   1.261  1.00  0.00     0.032 C 
ATOM     18  C   UNL     1       3.750   0.751   0.134  1.00  0.00    -0.053 C 
ATOM     19  C   UNL     1       3.769  -1.134  -1.583  1.00  0.00    -0.009 C 
ATOM     20  C   UNL     1       3.295  -1.605   0.792  1.00  0.00     0.024 C 
ATOM     21  C   UNL     1       4.883   1.226  -0.408  1.00  0.00     0.052 C 
ATOM     22  C   UNL     1       4.890  -0.640  -2.109  1.00  0.00     0.048 C 
ATOM     23  C   UNL     1       5.517   0.548  -1.537  1.00  0.00     0.178 C 
ATOM     24  O   UNL     1       6.590   0.994  -2.023  1.00  0.00    -0.290 OA
BRANCH   3  25
ATOM     25  O   UNL     1      -2.828   0.895  -1.756  1.00  0.00    -0.381 OA
ATOM     26  H   UNL     1      -2.842   0.194  -2.456  1.00  0.00     0.212 HD
ENDBRANCH   3  25
BRANCH  14  27
ATOM     27  O   UNL     1       0.822  -2.556  -0.293  1.00  0.00    -0.390 OA
ATOM     28  H   UNL     1       0.525  -3.357  -0.799  1.00  0.00     0.211 HD
ENDBRANCH  14  27
ENDBRANCH   1   3
BRANCH   1  29
ATOM     29  C   UNL     1      -5.071  -0.804  -1.506  1.00  0.00     0.234 C 
BRANCH  29  30
ATOM     30  O   UNL     1      -5.626   0.441  -1.832  1.00  0.00    -0.388 OA
ATOM     31  H   UNL     1      -6.238   0.682  -1.087  1.00  0.00     0.211 HD
ENDBRANCH  29  30
ENDBRANCH   1  29
TORSDOF 5
