REMARK SMILES O=c1nc[nH]c2c1ncn2[C@H]1CC[C@@H](CO)O1
REMARK SMILES IDX 14 1 13 2 12 3 11 4 17 5 15 6 16 7 10 9 9 10 6 11 8 12 7 13
REMARK SMILES IDX 5 14 2 15 4 16 3 18 1 19
REMARK H PARENT 16 8 5 17
REMARK Flexibility Score: inf
ROOT
ATOM      1  C   UNL     1       2.597   0.021   0.471  1.00  0.00     0.146 C 
ATOM      2  C   UNL     1       2.110  -1.240  -0.220  1.00  0.00     0.039 C 
ATOM      3  C   UNL     1       0.810  -1.507   0.472  1.00  0.00     0.058 C 
ATOM      4  C   UNL     1       0.373  -0.124   0.945  1.00  0.00     0.222 C 
ATOM      5  O   UNL     1       1.474   0.761   0.893  1.00  0.00    -0.352 OA
ENDROOT
BRANCH   1   6
ATOM      6  C   UNL     1       3.478   0.871  -0.451  1.00  0.00     0.188 C 
BRANCH   6   7
ATOM      7  O   UNL     1       3.996   1.972   0.246  1.00  0.00    -0.394 OA
ATOM      8  H   UNL     1       3.276   2.656   0.276  1.00  0.00     0.210 HD
ENDBRANCH   6   7
ENDBRANCH   1   6
BRANCH   4   9
ATOM      9  N   UNL     1      -0.714   0.385   0.104  1.00  0.00    -0.289 N 
ATOM     10  C   UNL     1      -0.611   1.122  -1.035  1.00  0.00     0.204 A 
ATOM     11  C   UNL     1      -2.027   0.129   0.198  1.00  0.00     0.146 A 
ATOM     12  N   UNL     1      -1.808   1.352  -1.642  1.00  0.00    -0.229 NA
ATOM     13  C   UNL     1      -2.675   0.713  -0.836  1.00  0.00     0.173 A 
ATOM     14  N   UNL     1      -2.670  -0.620   1.131  1.00  0.00    -0.330 N 
ATOM     15  C   UNL     1      -4.050   0.569  -0.962  1.00  0.00     0.300 A 
ATOM     16  C   UNL     1      -4.026  -0.763   1.017  1.00  0.00     0.202 A 
ATOM     17  H   UNL     1      -2.155  -1.079   1.914  1.00  0.00     0.169 HD
ATOM     18  N   UNL     1      -4.703  -0.172  -0.019  1.00  0.00    -0.198 NA
ATOM     19  O   UNL     1      -4.681   1.098  -1.914  1.00  0.00    -0.265 OA
ENDBRANCH   4   9
TORSDOF 3
