REMARK SMILES Oc1ccc2c(c1)[C@@]13CCCC[C@@]1(O)[C@@H](C2)N(CC1CCC1)CC3
REMARK SMILES IDX 15 1 16 2 5 3 6 4 7 5 2 6 3 7 4 8 8 9 9 10 10 11 11 12 12 13
REMARK SMILES IDX 13 14 24 15 23 16 17 17 14 18 18 20 19 21 20 22 22 23 21 24
REMARK SMILES IDX 1 25
REMARK H PARENT 14 19 1 26
REMARK Flexibility Score: inf
ROOT
ATOM      1  C   UNL     1       0.416  -0.733  -0.993  1.00  0.00     0.093 C 
ATOM      2  C   UNL     1      -0.214   0.291  -1.949  1.00  0.00     0.058 C 
ATOM      3  C   UNL     1      -1.322   1.084  -1.293  1.00  0.00    -0.042 A 
ATOM      4  C   UNL     1      -1.922   0.686  -0.063  1.00  0.00    -0.032 A 
ATOM      5  C   UNL     1      -2.906   1.532   0.499  1.00  0.00     0.050 A 
ATOM      6  C   UNL     1      -3.351   2.674  -0.178  1.00  0.00     0.115 A 
ATOM      7  C   UNL     1      -2.801   3.009  -1.412  1.00  0.00     0.046 A 
ATOM      8  C   UNL     1      -1.791   2.225  -1.963  1.00  0.00     0.008 A 
ATOM      9  C   UNL     1      -1.402  -0.548   0.720  1.00  0.00     0.027 C 
ATOM     10  C   UNL     1      -2.553  -1.320   1.449  1.00  0.00     0.015 C 
ATOM     11  C   UNL     1      -3.559  -1.938   0.471  1.00  0.00     0.001 C 
ATOM     12  C   UNL     1      -2.856  -2.902  -0.487  1.00  0.00     0.003 C 
ATOM     13  C   UNL     1      -1.730  -2.186  -1.239  1.00  0.00     0.038 C 
ATOM     14  C   UNL     1      -0.697  -1.545  -0.254  1.00  0.00     0.090 C 
ATOM     15  C   UNL     1      -0.375  -0.041   1.784  1.00  0.00     0.030 C 
ATOM     16  C   UNL     1       1.103  -0.197   1.370  1.00  0.00     0.086 C 
ATOM     17  N   UNL     1       1.316   0.033  -0.075  1.00  0.00    -0.297 NA
ENDROOT
BRANCH  14  18
ATOM     18  O   UNL     1      -0.106  -2.592   0.488  1.00  0.00    -0.387 OA
ATOM     19  H   UNL     1       0.392  -3.175  -0.142  1.00  0.00     0.211 HD
ENDBRANCH  14  18
BRANCH  17  20
ATOM     20  C   UNL     1       2.738  -0.126  -0.457  1.00  0.00     0.088 C 
BRANCH  20  21
ATOM     21  C   UNL     1       3.605   1.038   0.071  1.00  0.00     0.003 C 
ATOM     22  C   UNL     1       4.984   1.112  -0.588  1.00  0.00     0.005 C 
ATOM     23  C   UNL     1       4.278   0.779   1.420  1.00  0.00     0.005 C 
ATOM     24  C   UNL     1       5.646   0.866   0.760  1.00  0.00     0.001 C 
ENDBRANCH  20  21
ENDBRANCH  17  20
BRANCH   6  25
ATOM     25  O   UNL     1      -4.338   3.487   0.375  1.00  0.00    -0.508 OA
ATOM     26  H   UNL     1      -4.760   3.275   1.272  1.00  0.00     0.293 HD
ENDBRANCH   6  25
TORSDOF 4
