REMARK SMILES O=c1[nH]c2cc(Cl)ccc2o1
REMARK SMILES IDX 7 1 6 2 5 3 4 4 10 5 11 6 2 7 1 8 3 9 9 10 8 11
REMARK H PARENT 3 12
REMARK Flexibility Score: inf
ROOT
ATOM      1  Cl  UNL     1      -3.322  -1.628  -0.257  1.00  0.00    -0.084 Cl
ATOM      2  C   UNL     1      -1.862  -0.671  -0.088  1.00  0.00     0.043 A 
ATOM      3  C   UNL     1      -0.603  -1.277  -0.273  1.00  0.00     0.050 A 
ATOM      4  C   UNL     1       0.525  -0.473  -0.128  1.00  0.00     0.089 A 
ATOM      5  C   UNL     1       0.435   0.854   0.182  1.00  0.00     0.156 A 
ATOM      6  O   UNL     1       1.642   1.360   0.255  1.00  0.00    -0.408 OA
ATOM      7  C   UNL     1       2.459   0.355  -0.006  1.00  0.00     0.417 A 
ATOM      8  O   UNL     1       3.713   0.469  -0.025  1.00  0.00    -0.224 OA
ATOM      9  N   UNL     1       1.817  -0.812  -0.253  1.00  0.00    -0.287 N 
ATOM     10  C   UNL     1      -0.791   1.486   0.372  1.00  0.00     0.051 A 
ATOM     11  C   UNL     1      -1.954   0.705   0.233  1.00  0.00     0.024 A 
ATOM     12  H   UNL     1       2.226  -1.745  -0.483  1.00  0.00     0.173 HD
ENDROOT
TORSDOF 0
