REMARK SMILES CC(=O)CCCCn1c(=O)c2c(ncn2C)n(C)c1=O
REMARK SMILES IDX 6 1 7 2 8 3 16 4 15 5 14 6 11 7 13 8 12 9 9 10 17 11 10 12
REMARK SMILES IDX 19 13 18 14 20 15 5 16 4 17 2 18 1 19 3 20
REMARK H PARENT
REMARK Flexibility Score: inf
ROOT
ATOM      1  C   UNL     1       1.469  -0.440   0.619  1.00  0.00     0.023 C 
ENDROOT
BRANCH   1   2
ATOM      2  C   UNL     1       0.712   0.155  -0.577  1.00  0.00     0.131 C 
BRANCH   2   3
ATOM      3  N   UNL     1      -0.730   0.242  -0.274  1.00  0.00    -0.258 N 
ATOM      4  C   UNL     1      -3.900  -2.874  -1.095  1.00  0.00     0.151 C 
ATOM      5  N   UNL     1      -3.926  -1.555  -0.472  1.00  0.00    -0.328 N 
ATOM      6  C   UNL     1      -5.009  -0.910   0.028  1.00  0.00     0.202 A 
ATOM      7  C   UNL     1      -2.908  -0.703  -0.268  1.00  0.00     0.152 A 
ATOM      8  N   UNL     1      -4.712   0.313   0.541  1.00  0.00    -0.218 NA
ATOM      9  C   UNL     1      -3.382   0.409   0.338  1.00  0.00     0.167 A 
ATOM     10  C   UNL     1      -1.560  -0.814  -0.581  1.00  0.00     0.282 A 
ATOM     11  N   UNL     1      -2.576   1.449   0.683  1.00  0.00    -0.279 N 
ATOM     12  O   UNL     1      -1.114  -1.859  -1.129  1.00  0.00    -0.267 OA
ATOM     13  C   UNL     1      -1.238   1.365   0.361  1.00  0.00     0.332 A 
ATOM     14  C   UNL     1      -3.129   2.653   1.319  1.00  0.00     0.157 C 
ATOM     15  O   UNL     1      -0.468   2.324   0.652  1.00  0.00    -0.247 OA
ENDBRANCH   2   3
ENDBRANCH   1   2
BRANCH   1  16
ATOM     16  C   UNL     1       2.956  -0.684   0.321  1.00  0.00     0.010 C 
BRANCH  16  17
ATOM     17  C   UNL     1       3.766   0.618   0.246  1.00  0.00     0.075 C 
BRANCH  17  18
ATOM     18  C   UNL     1       5.232   0.323   0.065  1.00  0.00     0.129 C 
ATOM     19  C   UNL     1       5.944   0.654  -1.213  1.00  0.00     0.087 C 
ATOM     20  O   UNL     1       5.860  -0.188   0.980  1.00  0.00    -0.300 OA
ENDBRANCH  17  18
ENDBRANCH  16  17
ENDBRANCH   1  16
TORSDOF 5
