REMARK SMILES COc1ccc2c(c1)c(CC(=O)O)c(C)n2C(=O)c1ccc(Cl)cc1
REMARK SMILES IDX 3 1 8 2 7 3 6 4 5 5 4 6 16 7 14 8 15 9 9 10 2 11 1 12 10 13
REMARK SMILES IDX 11 14 12 15 13 16 17 18 18 19 19 20 20 21 25 22 21 23 24 24
REMARK SMILES IDX 22 25 23 26
REMARK H PARENT 13 17
REMARK Flexibility Score: inf
ROOT
ATOM      1  C   UNL     1      -2.239   2.007  -0.758  1.00  0.00     0.119 A 
ATOM      2  C   UNL     1      -2.469   0.679  -0.325  1.00  0.00     0.057 A 
ATOM      3  C   UNL     1      -1.365  -0.152  -0.130  1.00  0.00     0.008 A 
ATOM      4  C   UNL     1      -0.082   0.284  -0.352  1.00  0.00     0.057 A 
ATOM      5  C   UNL     1       0.175   1.582  -0.800  1.00  0.00     0.031 A 
ATOM      6  C   UNL     1      -0.917   2.446  -0.992  1.00  0.00     0.048 A 
ATOM      7  N   UNL     1       0.802  -0.717  -0.149  1.00  0.00    -0.280 N 
ATOM      8  C   UNL     1       0.070  -1.806   0.203  1.00  0.00     0.028 A 
ATOM      9  C   UNL     1       0.648  -3.175   0.425  1.00  0.00     0.065 C 
ATOM     10  C   UNL     1      -1.291  -1.485   0.234  1.00  0.00    -0.008 A 
ENDROOT
BRANCH   1  11
ATOM     11  O   UNL     1      -3.286   2.915  -0.974  1.00  0.00    -0.497 OA
ATOM     12  C   UNL     1      -4.664   2.611  -0.783  1.00  0.00     0.278 C 
ENDBRANCH   1  11
BRANCH  10  13
ATOM     13  C   UNL     1      -2.447  -2.418   0.457  1.00  0.00     0.160 C 
BRANCH  13  14
ATOM     14  C   UNL     1      -2.825  -3.080  -0.828  1.00  0.00     0.307 C 
ATOM     15  O   UNL     1      -3.645  -2.525  -1.607  1.00  0.00    -0.252 OA
BRANCH  14  16
ATOM     16  O   UNL     1      -2.236  -4.290  -1.184  1.00  0.00    -0.481 OA
ATOM     17  H   UNL     1      -2.468  -4.742  -2.060  1.00  0.00     0.296 HD
ENDBRANCH  14  16
ENDBRANCH  13  14
ENDBRANCH  10  13
BRANCH   7  18
ATOM     18  C   UNL     1       2.224  -0.668  -0.360  1.00  0.00     0.262 C 
ATOM     19  O   UNL     1       2.758  -1.509  -1.133  1.00  0.00    -0.268 OA
BRANCH  18  20
ATOM     20  C   UNL     1       3.067   0.339   0.327  1.00  0.00     0.040 A 
ATOM     21  C   UNL     1       4.355   0.635  -0.156  1.00  0.00     0.015 A 
ATOM     22  C   UNL     1       2.603   1.000   1.479  1.00  0.00     0.015 A 
ATOM     23  C   UNL     1       5.153   1.583   0.492  1.00  0.00     0.021 A 
ATOM     24  C   UNL     1       3.404   1.948   2.123  1.00  0.00     0.021 A 
ATOM     25  C   UNL     1       4.678   2.241   1.629  1.00  0.00     0.041 A 
ATOM     26  Cl  UNL     1       5.681   3.431   2.439  1.00  0.00    -0.084 Cl
ENDBRANCH  18  20
ENDBRANCH   7  18
TORSDOF 6
