REMARK SMILES O=C(O)c1cc(-c2ccc(F)cc2F)ccc1O
REMARK SMILES IDX 4 1 17 2 16 3 15 4 6 5 5 6 2 7 1 8 3 9 18 11 7 13 13 14 8 15
REMARK SMILES IDX 14 16 12 17 9 18 10 19 11 20
REMARK H PARENT 3 10 18 12
REMARK Flexibility Score: inf
ROOT
ATOM      1  C   UNL     1      -2.320   0.402   0.326  1.00  0.00     0.102 A 
ATOM      2  C   UNL     1      -2.815  -0.715  -0.385  1.00  0.00     0.130 A 
ATOM      3  C   UNL     1      -1.922  -1.630  -0.960  1.00  0.00     0.048 A 
ATOM      4  C   UNL     1      -0.545  -1.450  -0.835  1.00  0.00     0.013 A 
ATOM      5  C   UNL     1      -0.034  -0.351  -0.129  1.00  0.00    -0.014 A 
ATOM      6  C   UNL     1      -0.927   0.570   0.443  1.00  0.00     0.028 A 
ENDROOT
BRANCH   1   7
ATOM      7  C   UNL     1      -3.226   1.398   0.953  1.00  0.00     0.339 C 
ATOM      8  O   UNL     1      -4.478   1.275   0.874  1.00  0.00    -0.246 OA
BRANCH   7   9
ATOM      9  O   UNL     1      -2.698   2.489   1.640  1.00  0.00    -0.478 OA
ATOM     10  H   UNL     1      -3.304   3.176   2.072  1.00  0.00     0.297 HD
ENDBRANCH   7   9
ENDBRANCH   1   7
BRANCH   2  11
ATOM     11  O   UNL     1      -4.188  -0.921  -0.526  1.00  0.00    -0.507 OA
ATOM     12  H   UNL     1      -4.558  -1.717  -1.033  1.00  0.00     0.293 HD
ENDBRANCH   2  11
BRANCH   5  13
ATOM     13  C   UNL     1       1.431  -0.152  -0.003  1.00  0.00     0.018 A 
ATOM     14  C   UNL     1       2.278  -1.213   0.379  1.00  0.00     0.133 A 
ATOM     15  C   UNL     1       1.994   1.111  -0.262  1.00  0.00     0.015 A 
ATOM     16  F   UNL     1       1.770  -2.436   0.679  1.00  0.00    -0.206 F 
ATOM     17  C   UNL     1       3.658  -1.008   0.488  1.00  0.00     0.079 A 
ATOM     18  C   UNL     1       3.373   1.308  -0.151  1.00  0.00     0.040 A 
ATOM     19  C   UNL     1       4.205   0.250   0.222  1.00  0.00     0.126 A 
ATOM     20  F   UNL     1       5.542   0.444   0.330  1.00  0.00    -0.207 F 
ENDBRANCH   5  13
TORSDOF 4
