REMARK SMILES CN1CCC(=C2c3ccccc3CC(=O)c3sccc32)CC1
REMARK SMILES IDX 1 1 2 2 3 3 4 4 5 5 21 6 22 7 6 8 20 9 16 10 19 11 17 12
REMARK SMILES IDX 18 13 14 14 15 15 7 17 12 18 8 19 11 20 9 21 10 22 13 23
REMARK H PARENT
REMARK Flexibility Score: 80.00
ROOT
ATOM      1  C   UNL     1       4.903  -0.861  -0.244  1.00  0.00     0.105 C 
ATOM      2  N   UNL     1       3.486  -0.471  -0.378  1.00  0.00    -0.306 NA
ATOM      3  C   UNL     1       3.084   0.358   0.764  1.00  0.00     0.088 C 
ATOM      4  C   UNL     1       1.773   1.050   0.418  1.00  0.00     0.047 C 
ATOM      5  C   UNL     1       0.738   0.082  -0.117  1.00  0.00    -0.059 C 
ATOM      6  C   UNL     1       1.114  -1.390  -0.271  1.00  0.00     0.047 C 
ATOM      7  C   UNL     1       2.634  -1.676  -0.467  1.00  0.00     0.088 C 
ATOM      8  C   UNL     1      -0.556   0.484  -0.264  1.00  0.00    -0.010 C 
ENDROOT
BRANCH   8   9
ATOM      9  C   UNL     1      -0.984   1.878   0.005  1.00  0.00     0.004 A 
ATOM     10  C   UNL     1      -1.970   2.221   0.938  1.00  0.00     0.078 A 
ATOM     11  C   UNL     1      -0.505   2.982  -0.720  1.00  0.00     0.021 A 
ATOM     12  S   UNL     1      -2.205   3.886   0.865  1.00  0.00    -0.140 S 
ATOM     13  C   UNL     1      -1.084   4.189  -0.348  1.00  0.00     0.066 A 
BRANCH  10  14
ATOM     14  C   UNL     1      -2.706   1.310   1.844  1.00  0.00     0.177 CG0
ATOM     15  O   UNL     1      -3.582   1.785   2.623  1.00  0.00    -0.293 OA
ATOM     16  G   UNL     1      -2.416  -0.166   1.891  1.00  0.00     0.000 G0
ENDBRANCH  10  14
ENDBRANCH   8   9
BRANCH   8  17
ATOM     17  C   UNL     1      -1.654  -0.480  -0.511  1.00  0.00    -0.014 A 
ATOM     18  C   UNL     1      -2.570  -0.786   0.522  1.00  0.00    -0.032 A 
ATOM     19  C   UNL     1      -1.850  -1.009  -1.797  1.00  0.00     0.009 A 
ATOM     20  C   UNL     1      -3.648  -1.650   0.256  1.00  0.00     0.005 A 
ATOM     21  C   UNL     1      -2.922  -1.872  -2.046  1.00  0.00     0.001 A 
ATOM     22  C   UNL     1      -3.814  -2.198  -1.019  1.00  0.00     0.000 A 
BRANCH  18  23
ATOM     23  C   UNL     1      -2.416  -0.166   1.891  1.00  0.00     0.118 CG0
ATOM     24  G   UNL     1      -2.706   1.310   1.844  1.00  0.00     0.000 G0
ENDBRANCH  18  23
ENDBRANCH   8  17
TORSDOF 0
