REMARK SMILES CCCNC(C)C(=O)Nc1ccccc1C
REMARK SMILES IDX 5 1 6 2 4 3 3 5 2 6 1 7 7 8 8 9 9 10 10 12 11 13 15 14 12 15
REMARK SMILES IDX 14 16 16 17 13 18
REMARK H PARENT 4 4 9 11
REMARK Flexibility Score: inf
ROOT
ATOM      1  C   UNL     1      -1.201   0.677  -0.723  1.00  0.00     0.141 C 
ATOM      2  C   UNL     1      -1.623  -0.425  -1.705  1.00  0.00     0.035 C 
ENDROOT
BRANCH   1   3
ATOM      3  N   UNL     1      -2.314   1.107   0.151  1.00  0.00    -0.306 NA
ATOM      4  H   UNL     1      -1.976   1.883   0.769  1.00  0.00     0.123 HD
BRANCH   3   5
ATOM      5  C   UNL     1      -2.921   0.050   0.984  1.00  0.00     0.081 C 
BRANCH   5   6
ATOM      6  C   UNL     1      -4.373  -0.192   0.562  1.00  0.00     0.012 C 
ATOM      7  C   UNL     1      -5.253   1.033   0.806  1.00  0.00     0.005 C 
ENDBRANCH   5   6
ENDBRANCH   3   5
ENDBRANCH   1   3
BRANCH   1   8
ATOM      8  C   UNL     1       0.051   0.297   0.041  1.00  0.00     0.241 C 
ATOM      9  O   UNL     1      -0.019  -0.065   1.247  1.00  0.00    -0.273 OA
ATOM     10  N   UNL     1       1.318   0.302  -0.635  1.00  0.00    -0.324 N 
ATOM     11  H   UNL     1       1.319   0.425  -1.673  1.00  0.00     0.169 HD
BRANCH  10  12
ATOM     12  C   UNL     1       2.573   0.066   0.029  1.00  0.00     0.044 A 
ATOM     13  C   UNL     1       2.842   0.676   1.268  1.00  0.00     0.026 A 
ATOM     14  C   UNL     1       3.568  -0.734  -0.580  1.00  0.00    -0.027 A 
ATOM     15  C   UNL     1       4.071   0.483   1.901  1.00  0.00     0.002 A 
ATOM     16  C   UNL     1       4.805  -0.910   0.065  1.00  0.00     0.005 A 
ATOM     17  C   UNL     1       3.329  -1.390  -1.912  1.00  0.00     0.046 C 
ATOM     18  C   UNL     1       5.051  -0.309   1.301  1.00  0.00     0.000 A 
ENDBRANCH  10  12
ENDBRANCH   1   8
TORSDOF 5
