REMARK SMILES CN(CCOc1ccc(NS(C)(=O)=O)cc1)CCc1ccc(NS(C)(=O)=O)cc1
REMARK SMILES IDX 1 1 2 2 3 3 4 4 5 5 6 6 7 7 16 8 8 9 15 10 9 11 10 12 11 14
REMARK SMILES IDX 12 15 13 16 14 17 17 18 18 19 19 20 20 21 29 22 21 23 28 24
REMARK SMILES IDX 22 25 23 26 24 28 25 29 26 30 27 31
REMARK H PARENT 10 13 23 27
REMARK Flexibility Score: inf
ROOT
ATOM      1  C   UNL     1       0.245   2.749   1.119  1.00  0.00     0.105 C 
ATOM      2  N   UNL     1       0.501   1.335   1.449  1.00  0.00    -0.303 NA
ENDROOT
BRANCH   2   3
ATOM      3  C   UNL     1      -0.714   0.521   1.214  1.00  0.00     0.125 C 
BRANCH   3   4
ATOM      4  C   UNL     1      -1.578   0.486   2.478  1.00  0.00     0.245 C 
BRANCH   4   5
ATOM      5  O   UNL     1      -2.737  -0.322   2.275  1.00  0.00    -0.492 OA
BRANCH   5   6
ATOM      6  C   UNL     1      -3.874   0.055   1.540  1.00  0.00     0.119 A 
ATOM      7  C   UNL     1      -4.889  -0.891   1.364  1.00  0.00     0.048 A 
ATOM      8  C   UNL     1      -4.032   1.338   0.985  1.00  0.00     0.048 A 
ATOM      9  C   UNL     1      -6.043  -0.574   0.642  1.00  0.00     0.030 A 
ATOM     10  C   UNL     1      -5.185   1.655   0.261  1.00  0.00     0.030 A 
ATOM     11  C   UNL     1      -6.202   0.706   0.079  1.00  0.00     0.049 A 
BRANCH  11  12
ATOM     12  N   UNL     1      -7.373   1.073  -0.675  1.00  0.00    -0.284 N 
ATOM     13  H   UNL     1      -7.434   2.039  -1.069  1.00  0.00     0.180 HD
BRANCH  12  14
ATOM     14  S   UNL     1      -8.709   0.017  -1.003  1.00  0.00     0.229 S 
ATOM     15  C   UNL     1      -8.221  -1.260  -2.145  1.00  0.00     0.183 C 
ATOM     16  O   UNL     1      -9.217  -0.589   0.274  1.00  0.00    -0.207 OA
ATOM     17  O   UNL     1      -9.817   0.817  -1.627  1.00  0.00    -0.207 OA
ENDBRANCH  12  14
ENDBRANCH  11  12
ENDBRANCH   5   6
ENDBRANCH   4   5
ENDBRANCH   3   4
ENDBRANCH   2   3
BRANCH   2  18
ATOM     18  C   UNL     1       1.653   0.830   0.671  1.00  0.00     0.089 C 
BRANCH  18  19
ATOM     19  C   UNL     1       2.359  -0.293   1.439  1.00  0.00     0.051 C 
BRANCH  19  20
ATOM     20  C   UNL     1       3.577  -0.766   0.690  1.00  0.00    -0.047 A 
ATOM     21  C   UNL     1       4.833  -0.199   0.949  1.00  0.00     0.006 A 
ATOM     22  C   UNL     1       3.458  -1.742  -0.310  1.00  0.00     0.006 A 
ATOM     23  C   UNL     1       5.959  -0.616   0.234  1.00  0.00     0.027 A 
ATOM     24  C   UNL     1       4.583  -2.160  -1.025  1.00  0.00     0.027 A 
ATOM     25  C   UNL     1       5.845  -1.601  -0.765  1.00  0.00     0.048 A 
BRANCH  25  26
ATOM     26  N   UNL     1       6.981  -2.059  -1.522  1.00  0.00    -0.284 N 
ATOM     27  H   UNL     1       6.855  -2.854  -2.188  1.00  0.00     0.180 HD
BRANCH  26  28
ATOM     28  S   UNL     1       8.549  -1.316  -1.491  1.00  0.00     0.229 S 
ATOM     29  C   UNL     1       8.451   0.352  -2.105  1.00  0.00     0.183 C 
ATOM     30  O   UNL     1       9.475  -2.098  -2.379  1.00  0.00    -0.207 OA
ATOM     31  O   UNL     1       9.097  -1.330  -0.091  1.00  0.00    -0.207 OA
ENDBRANCH  26  28
ENDBRANCH  25  26
ENDBRANCH  19  20
ENDBRANCH  18  19
ENDBRANCH   2  18
TORSDOF 11
