REMARK SMILES Cc1cnc(NC(=O)C2=C(O)c3ccccc3S(=O)(=O)N2C)s1
REMARK SMILES IDX 22 1 21 2 9 3 10 4 12 5 17 6 16 7 15 8 14 9 13 10 18 11
REMARK SMILES IDX 19 12 20 13 7 14 8 15 6 16 5 18 4 19 23 20 3 21 2 22 1 23
REMARK SMILES IDX 11 24
REMARK H PARENT 6 17 11 25
REMARK Flexibility Score: inf
ROOT
ATOM      1  C   UNL     1      -0.675  -1.303  -2.854  1.00  0.00     0.164 C 
ATOM      2  N   UNL     1      -1.240  -0.286  -1.964  1.00  0.00    -0.261 N 
ATOM      3  C   UNL     1      -0.528   0.162  -0.789  1.00  0.00     0.159 C 
ATOM      4  C   UNL     1      -1.164   0.753   0.256  1.00  0.00     0.154 C 
ATOM      5  C   UNL     1      -2.658   0.879   0.353  1.00  0.00     0.039 A 
ATOM      6  C   UNL     1      -3.486   0.796  -0.785  1.00  0.00     0.099 A 
ATOM      7  C   UNL     1      -4.872   0.975  -0.679  1.00  0.00     0.023 A 
ATOM      8  C   UNL     1      -5.453   1.214   0.566  1.00  0.00     0.001 A 
ATOM      9  C   UNL     1      -4.656   1.258   1.708  1.00  0.00     0.001 A 
ATOM     10  C   UNL     1      -3.272   1.087   1.607  1.00  0.00     0.013 A 
ATOM     11  S   UNL     1      -2.785   0.397  -2.325  1.00  0.00     0.265 S 
ATOM     12  O   UNL     1      -3.652  -0.612  -3.026  1.00  0.00    -0.201 OA
ATOM     13  O   UNL     1      -2.624   1.628  -3.171  1.00  0.00    -0.201 OA
ENDROOT
BRANCH   3  14
ATOM     14  C   UNL     1       0.947   0.019  -0.749  1.00  0.00     0.278 C 
ATOM     15  O   UNL     1       1.631   0.418  -1.729  1.00  0.00    -0.267 OA
ATOM     16  N   UNL     1       1.587  -0.585   0.388  1.00  0.00    -0.296 N 
ATOM     17  H   UNL     1       0.987  -1.013   1.129  1.00  0.00     0.172 HD
BRANCH  16  18
ATOM     18  C   UNL     1       3.008  -0.659   0.559  1.00  0.00     0.189 A 
ATOM     19  N   UNL     1       3.904  -0.118  -0.298  1.00  0.00    -0.228 NA
ATOM     20  S   UNL     1       3.757  -1.401   1.870  1.00  0.00    -0.102 S 
ATOM     21  C   UNL     1       5.182  -0.323   0.118  1.00  0.00     0.128 A 
ATOM     22  C   UNL     1       5.299  -1.039   1.304  1.00  0.00     0.023 A 
ATOM     23  C   UNL     1       6.572  -1.333   2.023  1.00  0.00     0.058 C 
ENDBRANCH  16  18
ENDBRANCH   3  14
BRANCH   4  24
ATOM     24  O   UNL     1      -0.372   1.294   1.276  1.00  0.00    -0.505 OA
ATOM     25  H   UNL     1      -0.734   1.899   2.001  1.00  0.00     0.293 HD
ENDBRANCH   4  24
TORSDOF 3
