REMARK SMILES Cn1c(=O)c2[nH]cnc2n(C)c1=O
REMARK SMILES IDX 11 1 10 2 9 3 5 4 6 5 7 6 8 7 3 8 4 9 2 10 1 11 12 12 13 13
REMARK H PARENT 6 14
REMARK Flexibility Score: inf
ROOT
ATOM      1  C   UNL     1      -0.364   2.337   1.332  1.00  0.00     0.157 C 
ATOM      2  N   UNL     1      -0.226   1.089   0.571  1.00  0.00    -0.279 N 
ATOM      3  C   UNL     1       1.003   0.583   0.278  1.00  0.00     0.167 A 
ATOM      4  C   UNL     1       1.164  -0.586  -0.376  1.00  0.00     0.149 A 
ATOM      5  N   UNL     1       2.470  -0.847  -0.511  1.00  0.00    -0.339 N 
ATOM      6  C   UNL     1       3.073   0.209   0.085  1.00  0.00     0.199 A 
ATOM      7  N   UNL     1       2.199   1.119   0.591  1.00  0.00    -0.219 NA
ATOM      8  C   UNL     1       0.068  -1.329  -0.776  1.00  0.00     0.281 A 
ATOM      9  O   UNL     1       0.230  -2.431  -1.370  1.00  0.00    -0.267 OA
ATOM     10  N   UNL     1      -1.188  -0.837  -0.500  1.00  0.00    -0.261 N 
ATOM     11  C   UNL     1      -2.380  -1.616  -0.875  1.00  0.00     0.159 C 
ATOM     12  C   UNL     1      -1.331   0.352   0.199  1.00  0.00     0.332 A 
ATOM     13  O   UNL     1      -2.486   0.764   0.506  1.00  0.00    -0.247 OA
ATOM     14  H   UNL     1       2.922  -1.672  -0.964  1.00  0.00     0.168 HD
ENDROOT
TORSDOF 0
