REMARK SMILES CNCC[C@@H](Oc1ccccc1C)c1ccccc1
REMARK SMILES IDX 4 1 3 2 2 3 1 4 5 6 6 7 7 8 8 9 12 10 9 11 11 12 13 13 10 14
REMARK SMILES IDX 14 15 15 16 19 17 16 18 18 19 17 20
REMARK H PARENT 2 5
REMARK Flexibility Score: inf
ROOT
ATOM      1  C   UNL     1       0.412  -0.221   1.565  1.00  0.00     0.065 C 
ENDROOT
BRANCH   1   2
ATOM      2  C   UNL     1       1.799   0.327   1.184  1.00  0.00     0.085 C 
BRANCH   2   3
ATOM      3  N   UNL     1       1.688   1.417   0.209  1.00  0.00    -0.320 NA
ATOM      4  C   UNL     1       2.944   2.165   0.132  1.00  0.00     0.101 C 
ATOM      5  H   UNL     1       1.537   0.990  -0.734  1.00  0.00     0.122 HD
ENDBRANCH   2   3
ENDBRANCH   1   2
BRANCH   1   6
ATOM      6  C   UNL     1      -0.351  -0.968   0.441  1.00  0.00     0.205 C 
BRANCH   6   7
ATOM      7  O   UNL     1      -0.838  -0.074  -0.572  1.00  0.00    -0.485 OA
BRANCH   7   8
ATOM      8  C   UNL     1      -1.585   1.101  -0.367  1.00  0.00     0.123 A 
ATOM      9  C   UNL     1      -1.185   2.237  -1.087  1.00  0.00     0.047 A 
ATOM     10  C   UNL     1      -2.715   1.191   0.491  1.00  0.00    -0.009 A 
ATOM     11  C   UNL     1      -1.826   3.463  -0.905  1.00  0.00     0.004 A 
ATOM     12  C   UNL     1      -3.336   2.440   0.678  1.00  0.00     0.007 A 
ATOM     13  C   UNL     1      -3.313  -0.006   1.175  1.00  0.00     0.048 C 
ATOM     14  C   UNL     1      -2.890   3.568  -0.012  1.00  0.00     0.001 A 
ENDBRANCH   7   8
ENDBRANCH   6   7
BRANCH   6  15
ATOM     15  C   UNL     1       0.494  -2.066  -0.176  1.00  0.00    -0.008 A 
ATOM     16  C   UNL     1       0.700  -3.262   0.535  1.00  0.00     0.007 A 
ATOM     17  C   UNL     1       1.119  -1.902  -1.428  1.00  0.00     0.007 A 
ATOM     18  C   UNL     1       1.501  -4.276   0.001  1.00  0.00     0.000 A 
ATOM     19  C   UNL     1       1.920  -2.918  -1.957  1.00  0.00     0.000 A 
ATOM     20  C   UNL     1       2.110  -4.104  -1.244  1.00  0.00     0.000 A 
ENDBRANCH   6  15
ENDBRANCH   1   6
TORSDOF 6
