REMARK SMILES CCOc1ccccc1O[C@H](c1ccccc1)[C@H]1CNCCO1
REMARK SMILES IDX 9 1 8 2 7 3 6 4 5 5 4 6 10 7 11 8 18 9 19 10 23 11 20 12
REMARK SMILES IDX 22 13 21 14 12 16 13 17 17 18 14 19 16 20 15 21 3 22 2 23
REMARK SMILES IDX 1 24
REMARK H PARENT 20 15
REMARK Flexibility Score: inf
ROOT
ATOM      1  C   UNL     1       1.194  -1.104   0.695  1.00  0.00     0.162 A 
ATOM      2  C   UNL     1       0.555  -2.218   1.278  1.00  0.00     0.050 A 
ATOM      3  C   UNL     1       1.162  -2.910   2.327  1.00  0.00     0.004 A 
ATOM      4  C   UNL     1       2.408  -2.507   2.804  1.00  0.00     0.004 A 
ATOM      5  C   UNL     1       3.054  -1.409   2.233  1.00  0.00     0.050 A 
ATOM      6  C   UNL     1       2.450  -0.697   1.177  1.00  0.00     0.161 A 
ENDROOT
BRANCH   1   7
ATOM      7  O   UNL     1       0.633  -0.372  -0.368  1.00  0.00    -0.479 OA
BRANCH   7   8
ATOM      8  C   UNL     1      -0.677  -0.532  -0.925  1.00  0.00     0.234 C 
BRANCH   8   9
ATOM      9  C   UNL     1      -1.722   0.234  -0.076  1.00  0.00     0.177 C 
ATOM     10  C   UNL     1      -3.158  -0.012  -0.598  1.00  0.00     0.117 C 
ATOM     11  O   UNL     1      -1.626  -0.187   1.274  1.00  0.00    -0.371 OA
ATOM     12  N   UNL     1      -4.145   0.683   0.239  1.00  0.00    -0.312 NA
ATOM     13  C   UNL     1      -2.509   0.563   2.083  1.00  0.00     0.176 C 
ATOM     14  C   UNL     1      -3.962   0.330   1.651  1.00  0.00     0.109 C 
ATOM     15  H   UNL     1      -4.003   1.715   0.132  1.00  0.00     0.122 HD
ENDBRANCH   8   9
BRANCH   8  16
ATOM     16  C   UNL     1      -0.650  -0.010  -2.347  1.00  0.00    -0.005 A 
ATOM     17  C   UNL     1      -0.097   1.251  -2.635  1.00  0.00     0.007 A 
ATOM     18  C   UNL     1      -1.203  -0.769  -3.394  1.00  0.00     0.007 A 
ATOM     19  C   UNL     1      -0.091   1.738  -3.945  1.00  0.00     0.000 A 
ATOM     20  C   UNL     1      -1.196  -0.277  -4.703  1.00  0.00     0.000 A 
ATOM     21  C   UNL     1      -0.640   0.975  -4.978  1.00  0.00     0.000 A 
ENDBRANCH   8  16
ENDBRANCH   7   8
ENDBRANCH   1   7
BRANCH   6  22
ATOM     22  O   UNL     1       3.061   0.414   0.570  1.00  0.00    -0.490 OA
BRANCH  22  23
ATOM     23  C   UNL     1       4.266   1.044   1.005  1.00  0.00     0.226 C 
ATOM     24  C   UNL     1       4.016   1.883   2.254  1.00  0.00     0.049 C 
ENDBRANCH  22  23
ENDBRANCH   6  22
TORSDOF 6
