REMARK SMILES C=C(c1ccc(C(=O)O)cc1)c1cc2c(cc1C)C(C)(C)CCC2(C)C
REMARK SMILES IDX 3 1 4 2 5 3 6 4 10 5 11 6 2 7 1 8 12 9 18 10 17 11 16 12
REMARK SMILES IDX 15 13 13 14 14 15 19 16 24 17 22 18 20 19 21 20 25 21 26 22
REMARK SMILES IDX 23 23 7 24 8 25 9 26
REMARK H PARENT 9 27
REMARK Flexibility Score: inf
ROOT
ATOM      1  C   UNL     1       3.105   0.392  -0.844  1.00  0.00    -0.018 A 
ATOM      2  C   UNL     1       3.064   0.635   0.540  1.00  0.00     0.009 A 
ATOM      3  C   UNL     1       4.229   0.569   1.308  1.00  0.00     0.016 A 
ATOM      4  C   UNL     1       5.461   0.254   0.711  1.00  0.00     0.059 A 
ATOM      5  C   UNL     1       5.503   0.005  -0.671  1.00  0.00     0.016 A 
ATOM      6  C   UNL     1       4.338   0.071  -1.440  1.00  0.00     0.009 A 
ENDROOT
BRANCH   1   7
ATOM      7  C   UNL     1       1.853   0.444  -1.647  1.00  0.00    -0.018 C 
ATOM      8  C   UNL     1       1.855   0.942  -2.890  1.00  0.00     0.018 C 
BRANCH   7   9
ATOM      9  C   UNL     1       0.572  -0.015  -1.052  1.00  0.00    -0.015 A 
ATOM     10  C   UNL     1       1.499  -2.361  -0.700  1.00  0.00     0.045 C 
ATOM     11  C   UNL     1       0.399  -1.335  -0.595  1.00  0.00    -0.043 A 
ATOM     12  C   UNL     1      -0.820  -1.705  -0.014  1.00  0.00     0.008 A 
ATOM     13  C   UNL     1      -1.901  -0.803   0.092  1.00  0.00    -0.038 A 
ATOM     14  C   UNL     1      -0.478   0.902  -0.916  1.00  0.00     0.013 A 
ATOM     15  C   UNL     1      -1.701   0.551  -0.306  1.00  0.00    -0.038 A 
ATOM     16  C   UNL     1      -3.222  -1.295   0.705  1.00  0.00    -0.010 C 
ATOM     17  C   UNL     1      -2.792   1.624  -0.160  1.00  0.00    -0.010 C 
ATOM     18  C   UNL     1      -4.367  -0.278   0.479  1.00  0.00     0.012 C 
ATOM     19  C   UNL     1      -3.016  -1.534   2.218  1.00  0.00     0.016 C 
ATOM     20  C   UNL     1      -3.670  -2.625   0.049  1.00  0.00     0.016 C 
ATOM     21  C   UNL     1      -2.211   2.919   0.463  1.00  0.00     0.016 C 
ATOM     22  C   UNL     1      -3.357   1.958  -1.560  1.00  0.00     0.016 C 
ATOM     23  C   UNL     1      -3.934   1.153   0.774  1.00  0.00     0.012 C 
ENDBRANCH   7   9
ENDBRANCH   1   7
BRANCH   4  24
ATOM     24  C   UNL     1       6.697   0.182   1.521  1.00  0.00     0.335 C 
ATOM     25  O   UNL     1       6.661   0.403   2.762  1.00  0.00    -0.246 OA
BRANCH  24  26
ATOM     26  O   UNL     1       7.913  -0.132   0.920  1.00  0.00    -0.478 OA
ATOM     27  H   UNL     1       8.765  -0.184   1.466  1.00  0.00     0.297 HD
ENDBRANCH  24  26
ENDBRANCH   4  24
TORSDOF 4
