REMARK SMILES Clc1ccc2c(c1)C(N1CCNCC1)=Nc1ccccc1O2
REMARK SMILES IDX 1 1 2 2 7 3 6 4 5 5 22 6 21 7 20 8 19 9 18 10 17 11 16 12
REMARK SMILES IDX 15 13 8 14 9 15 10 16 11 17 12 18 13 19 14 20 4 21 3 22
REMARK H PARENT 12 23
REMARK Flexibility Score: inf
ROOT
ATOM      1  Cl  UNL     1      -0.772   4.735   1.895  1.00  0.00    -0.084 Cl
ATOM      2  C   UNL     1       0.098   3.530   0.964  1.00  0.00     0.042 A 
ATOM      3  C   UNL     1      -0.291   2.189   1.017  1.00  0.00     0.036 A 
ATOM      4  C   UNL     1       0.388   1.210   0.267  1.00  0.00     0.061 A 
ATOM      5  C   UNL     1       1.509   1.596  -0.496  1.00  0.00     0.138 A 
ATOM      6  O   UNL     1       2.298   0.677  -1.183  1.00  0.00    -0.454 OA
ATOM      7  C   UNL     1       2.809  -0.475  -0.587  1.00  0.00     0.153 A 
ATOM      8  C   UNL     1       4.166  -0.765  -0.781  1.00  0.00     0.049 A 
ATOM      9  C   UNL     1       4.742  -1.893  -0.193  1.00  0.00     0.004 A 
ATOM     10  C   UNL     1       3.959  -2.752   0.577  1.00  0.00     0.003 A 
ATOM     11  C   UNL     1       2.598  -2.489   0.749  1.00  0.00     0.032 A 
ATOM     12  C   UNL     1       2.012  -1.347   0.183  1.00  0.00     0.108 A 
ATOM     13  N   UNL     1       0.587  -1.231   0.248  1.00  0.00    -0.227 NA
ATOM     14  C   UNL     1      -0.166  -0.170   0.225  1.00  0.00     0.140 C 
ATOM     15  N   UNL     1      -1.595  -0.356   0.240  1.00  0.00    -0.353 N 
ATOM     16  C   UNL     1      -2.471   0.502  -0.571  1.00  0.00     0.133 C 
ATOM     17  C   UNL     1      -3.595  -0.314  -1.249  1.00  0.00     0.102 C 
ATOM     18  N   UNL     1      -3.934  -1.567  -0.547  1.00  0.00    -0.313 NA
ATOM     19  C   UNL     1      -3.687  -1.487   0.894  1.00  0.00     0.102 C 
ATOM     20  C   UNL     1      -2.182  -1.365   1.131  1.00  0.00     0.133 C 
ATOM     21  C   UNL     1       1.869   2.948  -0.570  1.00  0.00     0.049 A 
ATOM     22  C   UNL     1       1.170   3.911   0.157  1.00  0.00     0.024 A 
ATOM     23  H   UNL     1      -4.952  -1.763  -0.693  1.00  0.00     0.122 HD
ENDROOT
TORSDOF 0
