REMARK SMILES Cc1cccc(C)c1NC(=O)C1CCCCN1C
REMARK SMILES IDX 10 1 11 2 9 3 12 5 18 6 17 7 16 8 15 9 13 10 14 11 8 12 2 13
REMARK SMILES IDX 6 14 1 15 3 16 5 17 7 18 4 19
REMARK H PARENT 9 4
REMARK Flexibility Score: inf
ROOT
ATOM      1  C   UNL     1       0.321  -1.014   0.374  1.00  0.00     0.241 C 
ATOM      2  O   UNL     1       1.353  -1.716   0.558  1.00  0.00    -0.273 OA
ATOM      3  N   UNL     1       0.446   0.380   0.058  1.00  0.00    -0.324 N 
ATOM      4  H   UNL     1      -0.405   0.927  -0.198  1.00  0.00     0.170 HD
ENDROOT
BRANCH   1   5
ATOM      5  C   UNL     1      -1.035  -1.675   0.420  1.00  0.00     0.146 C 
ATOM      6  C   UNL     1      -1.888  -0.759   2.513  1.00  0.00     0.106 C 
ATOM      7  N   UNL     1      -2.024  -0.755   1.046  1.00  0.00    -0.295 NA
ATOM      8  C   UNL     1      -3.407  -1.106   0.670  1.00  0.00     0.085 C 
ATOM      9  C   UNL     1      -3.638  -0.857  -0.830  1.00  0.00     0.016 C 
ATOM     10  C   UNL     1      -1.447  -2.113  -1.012  1.00  0.00     0.029 C 
ATOM     11  C   UNL     1      -2.371  -1.088  -1.671  1.00  0.00     0.003 C 
ENDBRANCH   1   5
BRANCH   3  12
ATOM     12  C   UNL     1       1.725   0.998  -0.135  1.00  0.00     0.047 A 
ATOM     13  C   UNL     1       2.553   1.292   0.972  1.00  0.00    -0.027 A 
ATOM     14  C   UNL     1       2.149   1.333  -1.439  1.00  0.00    -0.027 A 
ATOM     15  C   UNL     1       2.112   0.977   2.376  1.00  0.00     0.046 C 
ATOM     16  C   UNL     1       3.812   1.874   0.757  1.00  0.00     0.005 A 
ATOM     17  C   UNL     1       3.404   1.933  -1.627  1.00  0.00     0.005 A 
ATOM     18  C   UNL     1       1.271   1.044  -2.627  1.00  0.00     0.046 C 
ATOM     19  C   UNL     1       4.231   2.194  -0.535  1.00  0.00     0.001 A 
ENDBRANCH   3  12
TORSDOF 2
