REMARK SMILES O=c1[nH]c(=O)n([C@H]2C[C@H](O)[C@@H](CO)O2)cc1F
REMARK SMILES IDX 11 1 14 2 7 3 8 4 9 5 12 6 13 7 10 9 6 11 15 12 4 13 16 14
REMARK SMILES IDX 3 15 5 16 17 17 2 18 1 20
REMARK H PARENT 13 8 10 10 3 19
REMARK Flexibility Score: inf
ROOT
ATOM      1  C   UNL     1      -2.137  -0.285  -0.206  1.00  0.00     0.175 C 
ATOM      2  O   UNL     1      -1.047  -0.198  -1.092  1.00  0.00    -0.349 OA
ATOM      3  C   UNL     1      -0.036  -1.044  -0.582  1.00  0.00     0.226 C 
ATOM      4  C   UNL     1      -0.352  -1.396   0.874  1.00  0.00     0.090 C 
ATOM      5  C   UNL     1      -1.588  -0.594   1.181  1.00  0.00     0.150 C 
ENDROOT
BRANCH   1   6
ATOM      6  C   UNL     1      -2.953   1.012  -0.245  1.00  0.00     0.190 C 
BRANCH   6   7
ATOM      7  O   UNL     1      -2.139   2.115   0.046  1.00  0.00    -0.394 OA
ATOM      8  H   UNL     1      -2.730   2.911   0.006  1.00  0.00     0.210 HD
ENDBRANCH   6   7
ENDBRANCH   1   6
BRANCH   5   9
ATOM      9  O   UNL     1      -2.497  -1.351   1.937  1.00  0.00    -0.390 OA
ATOM     10  H   UNL     1      -3.175  -0.714   2.282  1.00  0.00     0.211 HD
ENDBRANCH   5   9
BRANCH   3  11
ATOM     11  N   UNL     1       1.283  -0.385  -0.685  1.00  0.00    -0.271 N 
ATOM     12  C   UNL     1       1.404   0.937  -0.351  1.00  0.00     0.138 A 
ATOM     13  C   UNL     1       2.404  -1.093  -1.048  1.00  0.00     0.330 A 
ATOM     14  C   UNL     1       2.639   1.576  -0.412  1.00  0.00     0.204 A 
ATOM     15  N   UNL     1       3.616  -0.476  -1.112  1.00  0.00    -0.271 N 
ATOM     16  O   UNL     1       2.327  -2.323  -1.320  1.00  0.00    -0.248 OA
ATOM     17  F   UNL     1       2.749   2.889  -0.087  1.00  0.00    -0.199 F 
ATOM     18  C   UNL     1       3.752   0.841  -0.806  1.00  0.00     0.289 A 
ATOM     19  H   UNL     1       4.459  -1.026  -1.397  1.00  0.00     0.175 HD
ATOM     20  O   UNL     1       4.883   1.392  -0.872  1.00  0.00    -0.266 OA
ENDBRANCH   3  11
TORSDOF 4
