REMARK SMILES CNC1=Nc2ccc(Cl)cc2C(c2ccccc2)=[N+]([O-])C1
REMARK SMILES IDX 5 1 11 2 10 3 8 4 9 5 7 6 6 7 4 8 1 9 2 10 3 11 12 14 19 15
REMARK SMILES IDX 20 16 13 17 14 18 18 19 15 20 17 21 16 22 21 23
REMARK H PARENT 2 12
REMARK Flexibility Score: 90.00
ROOT
ATOM      1  C   UNL     1       1.228   1.397  -0.361  1.00  0.00     0.079 A 
ATOM      2  C   UNL     1      -0.049   0.879  -0.715  1.00  0.00     0.075 A 
ATOM      3  C   UNL     1      -1.006   1.758  -1.262  1.00  0.00     0.037 A 
ATOM      4  C   UNL     1      -0.722   3.115  -1.428  1.00  0.00     0.042 A 
ATOM      5  Cl  UNL     1      -1.933   4.188  -2.106  1.00  0.00    -0.084 Cl
ATOM      6  C   UNL     1       0.518   3.620  -1.042  1.00  0.00     0.023 A 
ATOM      7  C   UNL     1       1.483   2.767  -0.507  1.00  0.00     0.031 A 
ENDROOT
BRANCH   1   8
ATOM      8  N   UNL     1       2.281   0.586   0.188  1.00  0.00    -0.228 NA
ATOM      9  C   UNL     1       4.432  -0.711   1.555  1.00  0.00     0.141 C 
ATOM     10  N   UNL     1       3.606  -1.346   0.534  1.00  0.00    -0.371 N 
ATOM     11  C   UNL     1       2.539  -0.650  -0.126  1.00  0.00     0.169 CG0
ATOM     12  H   UNL     1       3.803  -2.342   0.286  1.00  0.00     0.161 HD
ATOM     13  G   UNL     1       1.724  -1.356  -1.166  1.00  0.00     0.000 G0
ENDBRANCH   1   8
BRANCH   2  14
ATOM     14  C   UNL     1      -0.452  -0.541  -0.458  1.00  0.00     0.228 C 
ATOM     15  N   UNL     1       0.368  -1.545  -0.662  1.00  0.00    -0.197 N 
ATOM     16  O   UNL     1      -0.007  -2.827  -0.318  1.00  0.00    -0.623 OA
BRANCH  14  17
ATOM     17  C   UNL     1      -1.825  -0.796   0.052  1.00  0.00     0.048 A 
ATOM     18  C   UNL     1      -2.300  -0.096   1.174  1.00  0.00     0.015 A 
ATOM     19  C   UNL     1      -2.676  -1.704  -0.602  1.00  0.00     0.015 A 
ATOM     20  C   UNL     1      -3.599  -0.315   1.643  1.00  0.00     0.001 A 
ATOM     21  C   UNL     1      -3.974  -1.920  -0.129  1.00  0.00     0.001 A 
ATOM     22  C   UNL     1      -4.435  -1.227   0.994  1.00  0.00     0.000 A 
ENDBRANCH  14  17
BRANCH  15  23
ATOM     23  C   UNL     1       1.724  -1.356  -1.166  1.00  0.00     0.439 CG0
ATOM     24  G   UNL     1       2.539  -0.650  -0.126  1.00  0.00     0.000 G0
ENDBRANCH  15  23
ENDBRANCH   2  14
TORSDOF 1
