REMARK SMILES O=C1CC[C@@]2(O)[C@H]3Cc4ccc(O)c5c4[C@@]2(CCN3CC2CC2)[C@H]1O5
REMARK SMILES IDX 24 1 25 2 14 3 12 4 11 5 10 6 9 7 15 8 16 9 17 10 18 11
REMARK SMILES IDX 19 12 7 13 8 14 5 15 4 16 3 17 2 18 1 19 6 20 13 22 20 24
REMARK SMILES IDX 21 25 22 26 23 27
REMARK H PARENT 6 21 13 23
REMARK Flexibility Score: inf
ROOT
ATOM      1  C   UNL     1      -2.684  -1.496   0.220  1.00  0.00     0.253 C 
ATOM      2  O   UNL     1      -3.591  -0.442   0.575  1.00  0.00    -0.477 OA
ATOM      3  C   UNL     1      -2.940   0.774   0.524  1.00  0.00     0.166 A 
ATOM      4  C   UNL     1      -3.503   2.048   0.555  1.00  0.00     0.158 A 
ATOM      5  C   UNL     1      -2.658   3.150   0.300  1.00  0.00     0.050 A 
ATOM      6  C   UNL     1      -1.300   2.943  -0.032  1.00  0.00     0.008 A 
ATOM      7  C   UNL     1      -0.769   1.638  -0.045  1.00  0.00    -0.038 A 
ATOM      8  C   UNL     1      -1.609   0.594   0.321  1.00  0.00     0.015 A 
ATOM      9  C   UNL     1      -1.257  -0.852   0.331  1.00  0.00     0.075 C 
ATOM     10  C   UNL     1      -0.581  -1.186   1.688  1.00  0.00     0.035 C 
ATOM     11  C   UNL     1       0.772  -0.463   1.856  1.00  0.00     0.086 C 
ATOM     12  N   UNL     1       1.630  -0.628   0.661  1.00  0.00    -0.297 NA
ATOM     13  C   UNL     1       0.960  -0.207  -0.604  1.00  0.00     0.094 C 
ATOM     14  C   UNL     1       0.585   1.323  -0.633  1.00  0.00     0.058 C 
ATOM     15  C   UNL     1      -0.266  -1.151  -0.827  1.00  0.00     0.095 C 
ATOM     16  C   UNL     1      -0.950  -0.926  -2.194  1.00  0.00     0.046 C 
ATOM     17  C   UNL     1      -2.158  -1.853  -2.386  1.00  0.00     0.083 C 
ATOM     18  C   UNL     1      -3.047  -1.991  -1.169  1.00  0.00     0.174 C 
ATOM     19  O   UNL     1      -4.122  -2.554  -1.310  1.00  0.00    -0.295 OA
ENDROOT
BRANCH  15  20
ATOM     20  O   UNL     1       0.213  -2.480  -0.773  1.00  0.00    -0.387 OA
ATOM     21  H   UNL     1      -0.549  -3.092  -0.601  1.00  0.00     0.211 HD
ENDBRANCH  15  20
BRANCH   4  22
ATOM     22  O   UNL     1      -4.863   2.215   0.801  1.00  0.00    -0.504 OA
ATOM     23  H   UNL     1      -5.286   3.136   0.816  1.00  0.00     0.293 HD
ENDBRANCH   4  22
BRANCH  12  24
ATOM     24  C   UNL     1       2.977  -0.060   0.882  1.00  0.00     0.088 C 
BRANCH  24  25
ATOM     25  C   UNL     1       3.956  -0.500  -0.217  1.00  0.00     0.003 C 
ATOM     26  C   UNL     1       4.297   0.544  -1.271  1.00  0.00     0.005 C 
ATOM     27  C   UNL     1       5.300   0.211  -0.179  1.00  0.00     0.005 C 
ENDBRANCH  24  25
ENDBRANCH  12  24
TORSDOF 4
