REMARK SMILES Cc1ncc(CO)c(CO)c1O
REMARK SMILES IDX 1 1 2 2 11 3 8 4 5 5 4 6 3 7 12 8 9 10 10 11 6 13 7 14
REMARK H PARENT 12 9 10 12 7 15
REMARK Flexibility Score: inf
ROOT
ATOM      1  C   UNL     1       3.401  -0.405   0.221  1.00  0.00     0.071 C 
ATOM      2  C   UNL     1       1.916  -0.506   0.046  1.00  0.00     0.079 A 
ATOM      3  C   UNL     1       1.085   0.598   0.297  1.00  0.00     0.142 A 
ATOM      4  C   UNL     1      -0.317   0.463   0.138  1.00  0.00     0.028 A 
ATOM      5  C   UNL     1      -0.836  -0.768  -0.343  1.00  0.00     0.005 A 
ATOM      6  C   UNL     1       0.047  -1.833  -0.569  1.00  0.00     0.118 A 
ATOM      7  N   UNL     1       1.379  -1.680  -0.372  1.00  0.00    -0.257 NA
ENDROOT
BRANCH   3   8
ATOM      8  O   UNL     1       1.678   1.803   0.691  1.00  0.00    -0.506 OA
ATOM      9  H   UNL     1       1.165   2.664   0.824  1.00  0.00     0.293 HD
ENDBRANCH   3   8
BRANCH   4  10
ATOM     10  C   UNL     1      -1.229   1.634   0.449  1.00  0.00     0.196 C 
BRANCH  10  11
ATOM     11  O   UNL     1      -1.162   2.587  -0.576  1.00  0.00    -0.392 OA
ATOM     12  H   UNL     1      -1.674   2.216  -1.341  1.00  0.00     0.211 HD
ENDBRANCH  10  11
ENDBRANCH   4  10
BRANCH   5  13
ATOM     13  C   UNL     1      -2.311  -0.996  -0.585  1.00  0.00     0.193 C 
BRANCH  13  14
ATOM     14  O   UNL     1      -2.980  -1.190   0.631  1.00  0.00    -0.392 OA
ATOM     15  H   UNL     1      -2.740  -2.102   0.942  1.00  0.00     0.211 HD
ENDBRANCH  13  14
ENDBRANCH   5  13
TORSDOF 5
