REMARK SMILES Nc1nc(Cl)nc2c1ncn2[C@H]1C[C@H](O)[C@@H](CO)O1
REMARK SMILES IDX 12 1 13 2 14 3 16 4 19 5 11 6 2 7 8 8 3 9 9 10 7 11 4 12
REMARK SMILES IDX 10 13 6 14 5 15 1 16 15 19 17 21 18 22
REMARK H PARENT 1 17 1 18 15 20 18 23
REMARK Flexibility Score: inf
ROOT
ATOM      1  C   UNL     1      -0.592   0.905   0.601  1.00  0.00     0.225 C 
ATOM      2  C   UNL     1      -1.141   1.265  -0.776  1.00  0.00     0.090 C 
ATOM      3  C   UNL     1      -2.358   0.394  -0.898  1.00  0.00     0.150 C 
ATOM      4  C   UNL     1      -2.755   0.186   0.558  1.00  0.00     0.175 C 
ATOM      5  O   UNL     1      -1.587   0.232   1.345  1.00  0.00    -0.350 OA
ENDROOT
BRANCH   1   6
ATOM      6  N   UNL     1       0.590   0.051   0.473  1.00  0.00    -0.288 N 
ATOM      7  C   UNL     1       4.029  -0.507   0.069  1.00  0.00     0.156 A 
ATOM      8  C   UNL     1       2.652  -0.656   0.187  1.00  0.00     0.150 A 
ATOM      9  N   UNL     1       4.542   0.755   0.186  1.00  0.00    -0.199 NA
ATOM     10  N   UNL     1       1.899  -1.767   0.083  1.00  0.00    -0.231 NA
ATOM     11  C   UNL     1       1.873   0.426   0.410  1.00  0.00     0.169 A 
ATOM     12  C   UNL     1       3.729   1.839   0.408  1.00  0.00     0.226 A 
ATOM     13  C   UNL     1       0.636  -1.290   0.258  1.00  0.00     0.204 A 
ATOM     14  N   UNL     1       2.376   1.680   0.520  1.00  0.00    -0.198 NA
ATOM     15  Cl  UNL     1       4.431   3.436   0.546  1.00  0.00    -0.041 Cl
BRANCH   7  16
ATOM     16  N   UNL     1       4.889  -1.620  -0.172  1.00  0.00    -0.382 N 
ATOM     17  H   UNL     1       5.920  -1.478  -0.259  1.00  0.00     0.158 HD
ATOM     18  H   UNL     1       4.505  -2.587  -0.264  1.00  0.00     0.158 HD
ENDBRANCH   7  16
ENDBRANCH   1   6
BRANCH   3  19
ATOM     19  O   UNL     1      -3.382   1.038  -1.610  1.00  0.00    -0.390 OA
ATOM     20  H   UNL     1      -3.123   1.000  -2.568  1.00  0.00     0.211 HD
ENDBRANCH   3  19
BRANCH   4  21
ATOM     21  C   UNL     1      -3.476  -1.149   0.784  1.00  0.00     0.190 C 
BRANCH  21  22
ATOM     22  O   UNL     1      -4.710  -1.166   0.118  1.00  0.00    -0.394 OA
ATOM     23  H   UNL     1      -4.531  -1.474  -0.809  1.00  0.00     0.210 HD
ENDBRANCH  21  22
ENDBRANCH   4  21
TORSDOF 5
