REMARK SMILES CCOC(=O)c1cncn1[C@H](C)c1ccccc1
REMARK SMILES IDX 6 1 7 2 8 3 9 4 10 5 4 6 5 7 3 8 2 9 1 10 11 11 12 12 13 13
REMARK SMILES IDX 14 14 18 15 15 16 17 17 16 18
REMARK H PARENT
REMARK Flexibility Score: inf
ROOT
ATOM      1  C   UNL     1       1.120  -1.840  -0.714  1.00  0.00     0.147 A 
ATOM      2  C   UNL     1       1.296  -2.799  -1.689  1.00  0.00     0.146 A 
ATOM      3  N   UNL     1       0.198  -3.573  -1.761  1.00  0.00    -0.244 NA
ATOM      4  C   UNL     1      -0.631  -3.071  -0.823  1.00  0.00     0.200 A 
ATOM      5  N   UNL     1      -0.101  -2.018  -0.155  1.00  0.00    -0.318 N 
ENDROOT
BRANCH   1   6
ATOM      6  C   UNL     1       2.103  -0.784  -0.390  1.00  0.00     0.356 C 
ATOM      7  O   UNL     1       3.191  -0.738  -1.027  1.00  0.00    -0.244 OA
BRANCH   6   8
ATOM      8  O   UNL     1       1.836   0.158   0.608  1.00  0.00    -0.461 OA
BRANCH   8   9
ATOM      9  C   UNL     1       2.681   1.271   0.889  1.00  0.00     0.230 C 
ATOM     10  C   UNL     1       2.524   2.347  -0.179  1.00  0.00     0.049 C 
ENDBRANCH   8   9
ENDBRANCH   6   8
ENDBRANCH   1   6
BRANCH   5  11
ATOM     11  C   UNL     1      -0.751  -1.202   0.890  1.00  0.00     0.116 C 
ATOM     12  C   UNL     1      -1.938  -1.919   1.548  1.00  0.00     0.037 C 
BRANCH  11  13
ATOM     13  C   UNL     1      -1.201   0.134   0.334  1.00  0.00    -0.025 A 
ATOM     14  C   UNL     1      -1.848   0.219  -0.913  1.00  0.00     0.006 A 
ATOM     15  C   UNL     1      -1.028   1.305   1.093  1.00  0.00     0.006 A 
ATOM     16  C   UNL     1      -2.275   1.457  -1.405  1.00  0.00     0.000 A 
ATOM     17  C   UNL     1      -1.457   2.540   0.598  1.00  0.00     0.000 A 
ATOM     18  C   UNL     1      -2.076   2.616  -0.652  1.00  0.00     0.000 A 
ENDBRANCH  11  13
ENDBRANCH   5  11
TORSDOF 5
