REMARK SMILES OCCN1CCN(CC/C=C2/c3ccccc3Sc3ccc(C(F)(F)F)cc32)CC1
REMARK SMILES IDX 7 1 6 2 5 3 4 4 30 5 29 6 8 7 9 8 10 9 11 10 12 11 28 12
REMARK SMILES IDX 13 13 17 14 19 15 27 16 14 17 16 18 18 19 20 20 22 21 15 22
REMARK SMILES IDX 21 23 23 24 24 25 25 26 26 27 3 28 2 29 1 30
REMARK H PARENT 1 31
REMARK Flexibility Score: inf
ROOT
ATOM      1  N   UNL     1       2.160   0.335  -0.614  1.00  0.00    -0.300 NA
ATOM      2  C   UNL     1       2.570   0.249   0.814  1.00  0.00     0.100 C 
ATOM      3  C   UNL     1       3.743   1.187   1.149  1.00  0.00     0.100 C 
ATOM      4  N   UNL     1       4.942   0.912   0.316  1.00  0.00    -0.299 NA
ATOM      5  C   UNL     1       4.608   0.379  -1.029  1.00  0.00     0.100 C 
ATOM      6  C   UNL     1       3.228   0.851  -1.499  1.00  0.00     0.100 C 
ENDROOT
BRANCH   1   7
ATOM      7  C   UNL     1       0.909   1.100  -0.797  1.00  0.00     0.088 C 
BRANCH   7   8
ATOM      8  C   UNL     1      -0.307   0.208  -0.518  1.00  0.00     0.043 C 
BRANCH   8   9
ATOM      9  C   UNL     1      -1.597   0.956  -0.747  1.00  0.00    -0.016 C 
ATOM     10  C   UNL     1      -2.797   0.543  -0.293  1.00  0.00    -0.013 C 
ATOM     11  C   UNL     1      -3.985   1.424  -0.411  1.00  0.00    -0.004 A 
ATOM     12  C   UNL     1      -3.011  -0.738   0.437  1.00  0.00    -0.003 A 
ATOM     13  C   UNL     1      -4.316   2.049  -1.626  1.00  0.00     0.010 A 
ATOM     14  C   UNL     1      -4.880   1.504   0.674  1.00  0.00     0.020 A 
ATOM     15  C   UNL     1      -3.851  -0.734   1.569  1.00  0.00     0.020 A 
ATOM     16  C   UNL     1      -2.599  -1.968  -0.105  1.00  0.00     0.023 A 
ATOM     17  C   UNL     1      -5.528   2.734  -1.755  1.00  0.00     0.001 A 
ATOM     18  C   UNL     1      -6.102   2.169   0.530  1.00  0.00     0.016 A 
ATOM     19  S   UNL     1      -4.400   0.828   2.272  1.00  0.00    -0.089 SA
ATOM     20  C   UNL     1      -4.250  -1.938   2.154  1.00  0.00     0.017 A 
ATOM     21  C   UNL     1      -2.951  -3.179   0.515  1.00  0.00     0.056 A 
ATOM     22  C   UNL     1      -6.424   2.785  -0.682  1.00  0.00     0.001 A 
ATOM     23  C   UNL     1      -3.800  -3.154   1.635  1.00  0.00     0.014 A 
BRANCH  21  24
ATOM     24  C   UNL     1      -2.522  -4.489  -0.096  1.00  0.00     0.416 C 
ATOM     25  F   UNL     1      -3.388  -4.819  -1.121  1.00  0.00    -0.166 F 
ATOM     26  F   UNL     1      -2.531  -5.503   0.846  1.00  0.00    -0.166 F 
ATOM     27  F   UNL     1      -1.238  -4.384  -0.605  1.00  0.00    -0.166 F 
ENDBRANCH  21  24
ENDBRANCH   8   9
ENDBRANCH   7   8
ENDBRANCH   1   7
BRANCH   4  28
ATOM     28  C   UNL     1       5.912   0.048   1.027  1.00  0.00     0.112 C 
BRANCH  28  29
ATOM     29  C   UNL     1       7.295   0.067   0.357  1.00  0.00     0.171 C 
BRANCH  29  30
ATOM     30  O   UNL     1       7.327  -0.769  -0.768  1.00  0.00    -0.395 OA
ATOM     31  H   UNL     1       7.354  -1.701  -0.429  1.00  0.00     0.210 HD
ENDBRANCH  29  30
ENDBRANCH  28  29
ENDBRANCH   4  28
TORSDOF 7
