REMARK SMILES COCc1c(C(C)C)nc(C(C)C)c(/C=C/[C@@H](O)C[C@@H](O)CC(=O)O)c1-c1ccc(F)cc1
REMARK SMILES IDX 19 1 17 2 16 3 15 4 14 5 4 6 26 7 5 8 9 9 10 10 3 11 2 12
REMARK SMILES IDX 1 13 27 14 28 15 33 16 29 17 32 18 30 19 31 20 6 21 7 22
REMARK SMILES IDX 8 23 11 24 12 25 13 26 18 27 20 29 21 30 22 32 23 33 24 34
REMARK SMILES IDX 25 35
REMARK H PARENT 18 28 21 31 25 36
REMARK Flexibility Score: inf
ROOT
ATOM      1  C   UNL     1       2.963  -3.028   0.311  1.00  0.00     0.068 C 
ENDROOT
BRANCH   1   2
ATOM      2  C   UNL     1       3.035  -1.972   1.440  1.00  0.00     0.140 C 
BRANCH   2   3
ATOM      3  C   UNL     1       1.986  -0.901   1.265  1.00  0.00     0.005 C 
ATOM      4  C   UNL     1       0.683  -1.163   1.407  1.00  0.00     0.009 C 
BRANCH   4   5
ATOM      5  C   UNL     1      -0.345  -0.122   1.192  1.00  0.00     0.004 A 
ATOM      6  C   UNL     1      -2.184   0.803  -0.148  1.00  0.00     0.008 A 
ATOM      7  C   UNL     1      -1.180  -0.182   0.050  1.00  0.00    -0.002 A 
ATOM      8  C   UNL     1      -2.263   1.882   0.771  1.00  0.00     0.049 A 
ATOM      9  N   UNL     1      -1.428   1.903   1.842  1.00  0.00    -0.256 NA
ATOM     10  C   UNL     1      -0.509   0.941   2.107  1.00  0.00     0.051 A 
BRANCH   6  11
ATOM     11  C   UNL     1      -3.146   0.709  -1.318  1.00  0.00     0.197 C 
BRANCH  11  12
ATOM     12  O   UNL     1      -2.792   1.670  -2.288  1.00  0.00    -0.380 OA
ATOM     13  C   UNL     1      -3.757   1.678  -3.315  1.00  0.00     0.195 C 
ENDBRANCH  11  12
ENDBRANCH   6  11
BRANCH   7  14
ATOM     14  C   UNL     1      -0.931  -1.223  -0.981  1.00  0.00    -0.017 A 
ATOM     15  C   UNL     1      -1.195  -2.575  -0.712  1.00  0.00     0.012 A 
ATOM     16  C   UNL     1      -0.407  -0.856  -2.231  1.00  0.00     0.012 A 
ATOM     17  C   UNL     1      -0.906  -3.550  -1.673  1.00  0.00     0.040 A 
ATOM     18  C   UNL     1      -0.131  -1.832  -3.193  1.00  0.00     0.040 A 
ATOM     19  C   UNL     1      -0.370  -3.180  -2.910  1.00  0.00     0.123 A 
ATOM     20  F   UNL     1      -0.085  -4.127  -3.836  1.00  0.00    -0.207 F 
ENDBRANCH   7  14
BRANCH   8  21
ATOM     21  C   UNL     1      -3.169   3.087   0.568  1.00  0.00     0.032 C 
ATOM     22  C   UNL     1      -2.360   4.249  -0.019  1.00  0.00     0.014 C 
ATOM     23  C   UNL     1      -3.833   3.507   1.888  1.00  0.00     0.014 C 
ENDBRANCH   8  21
BRANCH  10  24
ATOM     24  C   UNL     1       0.310   1.076   3.379  1.00  0.00     0.032 C 
ATOM     25  C   UNL     1       1.257   2.276   3.274  1.00  0.00     0.014 C 
ATOM     26  C   UNL     1      -0.610   1.220   4.598  1.00  0.00     0.014 C 
ENDBRANCH  10  24
ENDBRANCH   4   5
ENDBRANCH   2   3
BRANCH   2  27
ATOM     27  O   UNL     1       2.863  -2.606   2.682  1.00  0.00    -0.389 OA
ATOM     28  H   UNL     1       3.100  -1.941   3.382  1.00  0.00     0.211 HD
ENDBRANCH   2  27
ENDBRANCH   1   2
BRANCH   1  29
ATOM     29  C   UNL     1       3.816  -2.686  -0.932  1.00  0.00     0.128 C 
BRANCH  29  30
ATOM     30  O   UNL     1       3.684  -3.724  -1.872  1.00  0.00    -0.392 OA
ATOM     31  H   UNL     1       4.262  -4.470  -1.561  1.00  0.00     0.210 HD
ENDBRANCH  29  30
BRANCH  29  32
ATOM     32  C   UNL     1       3.396  -1.358  -1.585  1.00  0.00     0.154 C 
BRANCH  32  33
ATOM     33  C   UNL     1       4.100  -1.137  -2.890  1.00  0.00     0.305 C 
ATOM     34  O   UNL     1       3.441  -1.080  -3.963  1.00  0.00    -0.252 OA
BRANCH  33  35
ATOM     35  O   UNL     1       5.485  -1.000  -2.916  1.00  0.00    -0.481 OA
ATOM     36  H   UNL     1       5.978  -0.865  -3.791  1.00  0.00     0.296 HD
ENDBRANCH  33  35
ENDBRANCH  32  33
ENDBRANCH  29  32
ENDBRANCH   1  29
TORSDOF 14
