REMARK SMILES CC(C)(N)Cc1ccccc1
REMARK SMILES IDX 1 1 2 2 3 3 4 4 5 7 6 8 7 9 11 10 8 11 10 12 9 13
REMARK H PARENT 4 5 4 6
REMARK Flexibility Score: inf
ROOT
ATOM      1  C   UNL     1      -3.058  -0.430  -0.008  1.00  0.00     0.028 C 
ATOM      2  C   UNL     1      -1.604  -0.058   0.337  1.00  0.00     0.014 C 
ATOM      3  C   UNL     1      -1.515   1.475   0.478  1.00  0.00     0.028 C 
ENDROOT
BRANCH   2   4
ATOM      4  N   UNL     1      -1.264  -0.683   1.623  1.00  0.00    -0.325 NA
ATOM      5  H   UNL     1      -1.222  -1.722   1.509  1.00  0.00     0.119 HD
ATOM      6  H   UNL     1      -0.320  -0.365   1.940  1.00  0.00     0.119 HD
ENDBRANCH   2   4
BRANCH   2   7
ATOM      7  C   UNL     1      -0.674  -0.572  -0.804  1.00  0.00     0.057 C 
BRANCH   7   8
ATOM      8  C   UNL     1       0.794  -0.293  -0.578  1.00  0.00    -0.046 A 
ATOM      9  C   UNL     1       1.375   0.893  -1.060  1.00  0.00     0.004 A 
ATOM     10  C   UNL     1       1.596  -1.218   0.113  1.00  0.00     0.004 A 
ATOM     11  C   UNL     1       2.732   1.152  -0.845  1.00  0.00     0.000 A 
ATOM     12  C   UNL     1       2.953  -0.955   0.325  1.00  0.00     0.000 A 
ATOM     13  C   UNL     1       3.520   0.230  -0.152  1.00  0.00     0.000 A 
ENDBRANCH   7   8
ENDBRANCH   2   7
TORSDOF 3
