REMARK SMILES CCOC(=O)[C@H](CCc1ccccc1)N[C@H]1CCc2ccccc2N(CC(=O)O)C1=O
REMARK SMILES IDX 16 1 17 2 15 4 6 6 7 7 8 8 9 9 10 10 14 11 11 12 13 13 12 14
REMARK SMILES IDX 4 15 5 16 3 17 2 18 1 19 30 20 31 21 25 22 24 23 19 24 23 25
REMARK SMILES IDX 20 26 22 27 21 28 18 29 26 31 27 32 28 33 29 34
REMARK H PARENT 15 5 29 35
REMARK Flexibility Score: 90.00
ROOT
ATOM      1  C   UNL     1      -0.905   0.088   0.116  1.00  0.00     0.145 C 
ENDROOT
BRANCH   1   2
ATOM      2  C   UNL     1      -1.778   0.892   1.103  1.00  0.00     0.034 CG0
ATOM      3  G   UNL     1      -2.607  -0.006   2.028  1.00  0.00     0.000 G0
ENDBRANCH   1   2
BRANCH   1   4
ATOM      4  N   UNL     1       0.253   0.884  -0.332  1.00  0.00    -0.293 NA
ATOM      5  H   UNL     1      -0.066   1.838  -0.628  1.00  0.00     0.124 HD
BRANCH   4   6
ATOM      6  C   UNL     1       1.350   0.934   0.662  1.00  0.00     0.165 C 
BRANCH   6   7
ATOM      7  C   UNL     1       2.622   0.320   0.055  1.00  0.00     0.036 C 
BRANCH   7   8
ATOM      8  C   UNL     1       2.454  -1.179  -0.228  1.00  0.00     0.038 C 
BRANCH   8   9
ATOM      9  C   UNL     1       3.729  -1.758  -0.781  1.00  0.00    -0.048 A 
ATOM     10  C   UNL     1       3.973  -1.741  -2.164  1.00  0.00     0.004 A 
ATOM     11  C   UNL     1       4.711  -2.267   0.086  1.00  0.00     0.004 A 
ATOM     12  C   UNL     1       5.172  -2.249  -2.674  1.00  0.00     0.000 A 
ATOM     13  C   UNL     1       5.909  -2.774  -0.428  1.00  0.00     0.000 A 
ATOM     14  C   UNL     1       6.139  -2.767  -1.807  1.00  0.00     0.000 A 
ENDBRANCH   8   9
ENDBRANCH   7   8
ENDBRANCH   6   7
BRANCH   6  15
ATOM     15  C   UNL     1       1.629   2.354   1.085  1.00  0.00     0.323 C 
ATOM     16  O   UNL     1       1.486   2.685   2.294  1.00  0.00    -0.250 OA
BRANCH  15  17
ATOM     17  O   UNL     1       2.029   3.296   0.129  1.00  0.00    -0.465 OA
BRANCH  17  18
ATOM     18  C   UNL     1       2.374   4.641   0.450  1.00  0.00     0.229 C 
ATOM     19  C   UNL     1       3.755   4.702   1.091  1.00  0.00     0.049 C 
ENDBRANCH  17  18
ENDBRANCH  15  17
ENDBRANCH   6  15
ENDBRANCH   4   6
ENDBRANCH   1   4
BRANCH   1  20
ATOM     20  C   UNL     1      -1.727  -0.296  -1.080  1.00  0.00     0.244 C 
ATOM     21  O   UNL     1      -1.158  -0.562  -2.174  1.00  0.00    -0.273 OA
BRANCH  20  22
ATOM     22  N   UNL     1      -3.156  -0.371  -0.985  1.00  0.00    -0.300 N 
BRANCH  22  23
ATOM     23  C   UNL     1      -3.744  -1.234   0.009  1.00  0.00     0.048 A 
ATOM     24  C   UNL     1      -3.465  -1.094   1.400  1.00  0.00    -0.024 A 
ATOM     25  C   UNL     1      -4.599  -2.269  -0.417  1.00  0.00     0.026 A 
ATOM     26  C   UNL     1      -4.072  -1.989   2.304  1.00  0.00     0.006 A 
ATOM     27  C   UNL     1      -5.181  -3.143   0.500  1.00  0.00     0.002 A 
ATOM     28  C   UNL     1      -4.919  -3.002   1.858  1.00  0.00     0.000 A 
BRANCH  24  29
ATOM     29  C   UNL     1      -2.607  -0.006   2.028  1.00  0.00     0.040 CG0
ATOM     30  G   UNL     1      -1.778   0.892   1.103  1.00  0.00     0.000 G0
ENDBRANCH  24  29
ENDBRANCH  22  23
BRANCH  22  31
ATOM     31  C   UNL     1      -3.967   0.212  -2.063  1.00  0.00     0.248 C 
BRANCH  31  32
ATOM     32  C   UNL     1      -5.158   0.925  -1.502  1.00  0.00     0.323 C 
ATOM     33  O   UNL     1      -5.026   2.072  -0.998  1.00  0.00    -0.250 OA
BRANCH  32  34
ATOM     34  O   UNL     1      -6.403   0.304  -1.502  1.00  0.00    -0.480 OA
ATOM     35  H   UNL     1      -7.213   0.765  -1.106  1.00  0.00     0.296 HD
ENDBRANCH  32  34
ENDBRANCH  31  32
ENDBRANCH  22  31
ENDBRANCH  20  22
ENDBRANCH   1  20
TORSDOF 11
