REMARK SMILES O=c1oc2ccccc2c(O)c1Cc1c(O)c2ccccc2oc1=O
REMARK SMILES IDX 13 1 14 2 15 3 17 4 24 5 22 6 18 7 25 8 23 9 21 10 19 11
REMARK SMILES IDX 20 12 16 13 12 15 10 16 2 17 9 18 3 19 1 20 4 21 8 22 5 23
REMARK SMILES IDX 7 24 6 25 11 26
REMARK H PARENT 16 14 11 27
REMARK Flexibility Score: inf
ROOT
ATOM      1  C   UNL     1       0.137   0.225  -2.261  1.00  0.00     0.094 C 
ENDROOT
BRANCH   1   2
ATOM      2  C   UNL     1       1.267  -0.197  -1.339  1.00  0.00     0.085 A 
ATOM      3  C   UNL     1       2.068   0.758  -0.678  1.00  0.00     0.137 A 
ATOM      4  C   UNL     1       3.094   0.315   0.192  1.00  0.00     0.060 A 
ATOM      5  C   UNL     1       1.538  -1.563  -1.126  1.00  0.00     0.343 A 
ATOM      6  C   UNL     1       3.279  -1.080   0.346  1.00  0.00     0.142 A 
ATOM      7  C   UNL     1       3.935   1.193   0.911  1.00  0.00     0.016 A 
ATOM      8  O   UNL     1       0.862  -2.449  -1.714  1.00  0.00    -0.246 OA
ATOM      9  O   UNL     1       2.512  -1.940  -0.309  1.00  0.00    -0.422 OA
ATOM     10  C   UNL     1       4.279  -1.571   1.193  1.00  0.00     0.048 A 
ATOM     11  C   UNL     1       4.929   0.688   1.754  1.00  0.00     0.001 A 
ATOM     12  C   UNL     1       5.102  -0.689   1.895  1.00  0.00     0.004 A 
BRANCH   3  13
ATOM     13  O   UNL     1       1.823   2.116  -0.914  1.00  0.00    -0.507 OA
ATOM     14  H   UNL     1       2.345   2.876  -0.504  1.00  0.00     0.293 HD
ENDBRANCH   3  13
ENDBRANCH   1   2
BRANCH   1  15
ATOM     15  C   UNL     1      -1.218  -0.087  -1.654  1.00  0.00     0.085 A 
ATOM     16  C   UNL     1      -1.701   0.660  -0.562  1.00  0.00     0.137 A 
ATOM     17  C   UNL     1      -2.021  -1.128  -2.164  1.00  0.00     0.343 A 
ATOM     18  C   UNL     1      -2.959   0.333  -0.001  1.00  0.00     0.060 A 
ATOM     19  O   UNL     1      -3.196  -1.403  -1.615  1.00  0.00    -0.422 OA
ATOM     20  O   UNL     1      -1.637  -1.813  -3.149  1.00  0.00    -0.246 OA
ATOM     21  C   UNL     1      -3.686  -0.735  -0.579  1.00  0.00     0.142 A 
ATOM     22  C   UNL     1      -3.519   1.015   1.101  1.00  0.00     0.016 A 
ATOM     23  C   UNL     1      -4.935  -1.100  -0.065  1.00  0.00     0.048 A 
ATOM     24  C   UNL     1      -4.768   0.640   1.604  1.00  0.00     0.001 A 
ATOM     25  C   UNL     1      -5.474  -0.414   1.024  1.00  0.00     0.004 A 
BRANCH  16  26
ATOM     26  O   UNL     1      -0.912   1.707  -0.074  1.00  0.00    -0.507 OA
ATOM     27  H   UNL     1      -1.164   2.307   0.698  1.00  0.00     0.293 HD
ENDBRANCH  16  26
ENDBRANCH   1  15
TORSDOF 4
