REMARK SMILES COc1cccc2c1C(=O)c1c(O)c3c(c(O)c1C2=O)C[C@@](O)(C(=O)CO)C[C@@H]3O[C@H]1C[C@H](N)[C@@H](O)[C@H](C)O1
REMARK SMILES IDX 3 1 4 2 5 3 6 4 7 5 8 6 9 7 10 8 11 9 12 10 14 11 15 12
REMARK SMILES IDX 21 13 22 14 28 15 29 16 16 17 18 18 19 19 20 20 2 21 1 22
REMARK SMILES IDX 13 23 17 25 30 27 31 28 32 29 39 30 33 31 37 32 35 33 38 34
REMARK SMILES IDX 34 35 36 38 23 40 24 42 25 43 26 44 27 45
REMARK H PARENT 13 24 17 26 34 36 34 37 36 39 23 41 27 46
REMARK Flexibility Score: inf
ROOT
ATOM      1  C   UNL     1       5.985  -2.044   0.192  1.00  0.00     0.130 A 
ATOM      2  C   UNL     1       7.122  -2.060   1.023  1.00  0.00     0.047 A 
ATOM      3  C   UNL     1       7.285  -1.100   2.017  1.00  0.00     0.005 A 
ATOM      4  C   UNL     1       6.320  -0.114   2.205  1.00  0.00     0.013 A 
ATOM      5  C   UNL     1       5.175  -0.072   1.391  1.00  0.00     0.038 A 
ATOM      6  C   UNL     1       5.006  -1.034   0.373  1.00  0.00     0.076 A 
ATOM      7  C   UNL     1       3.804  -0.952  -0.496  1.00  0.00     0.202 C 
ATOM      8  O   UNL     1       3.785  -1.578  -1.589  1.00  0.00    -0.288 OA
ATOM      9  C   UNL     1       2.685  -0.030  -0.152  1.00  0.00     0.080 A 
ATOM     10  C   UNL     1       1.406  -0.156  -0.747  1.00  0.00     0.133 A 
ATOM     11  C   UNL     1       0.442   0.860  -0.591  1.00  0.00     0.031 A 
ATOM     12  C   UNL     1       0.749   1.996   0.196  1.00  0.00     0.008 A 
ATOM     13  C   UNL     1      -0.200   3.177   0.271  1.00  0.00     0.083 C 
ATOM     14  C   UNL     1      -1.665   2.791   0.018  1.00  0.00     0.132 C 
ATOM     15  C   UNL     1      -1.734   1.981  -1.295  1.00  0.00     0.081 C 
ATOM     16  C   UNL     1      -0.939   0.666  -1.209  1.00  0.00     0.159 C 
ATOM     17  C   UNL     1       2.007   2.101   0.819  1.00  0.00     0.131 A 
ATOM     18  C   UNL     1       2.936   1.035   0.737  1.00  0.00     0.080 A 
ATOM     19  C   UNL     1       4.142   0.967   1.612  1.00  0.00     0.198 C 
ATOM     20  O   UNL     1       4.246   1.724   2.615  1.00  0.00    -0.288 OA
ENDROOT
BRANCH   1  21
ATOM     21  O   UNL     1       5.799  -3.019  -0.803  1.00  0.00    -0.496 OA
ATOM     22  C   UNL     1       6.704  -4.084  -1.078  1.00  0.00     0.278 C 
ENDBRANCH   1  21
BRANCH  10  23
ATOM     23  O   UNL     1       1.048  -1.302  -1.464  1.00  0.00    -0.507 OA
ATOM     24  H   UNL     1       1.531  -2.186  -1.386  1.00  0.00     0.293 HD
ENDBRANCH  10  23
BRANCH  17  25
ATOM     25  O   UNL     1       2.318   3.299   1.471  1.00  0.00    -0.507 OA
ATOM     26  H   UNL     1       3.264   3.604   1.658  1.00  0.00     0.293 HD
ENDBRANCH  17  25
BRANCH  16  27
ATOM     27  O   UNL     1      -1.660  -0.274  -0.421  1.00  0.00    -0.344 OA
BRANCH  27  28
ATOM     28  C   UNL     1      -2.156  -1.361  -1.193  1.00  0.00     0.252 C 
ATOM     29  C   UNL     1      -2.431  -2.570  -0.286  1.00  0.00     0.083 C 
ATOM     30  O   UNL     1      -3.309  -0.995  -1.936  1.00  0.00    -0.347 OA
ATOM     31  C   UNL     1      -3.637  -2.318   0.629  1.00  0.00     0.087 C 
ATOM     32  C   UNL     1      -4.400  -0.652  -1.093  1.00  0.00     0.148 C 
ATOM     33  C   UNL     1      -4.832  -1.851  -0.222  1.00  0.00     0.160 C 
ATOM     34  C   UNL     1      -5.554  -0.179  -1.979  1.00  0.00     0.041 C 
BRANCH  31  35
ATOM     35  N   UNL     1      -3.974  -3.544   1.355  1.00  0.00    -0.325 NA
ATOM     36  H   UNL     1      -3.135  -3.844   1.904  1.00  0.00     0.119 HD
ATOM     37  H   UNL     1      -4.706  -3.318   2.066  1.00  0.00     0.119 HD
ENDBRANCH  31  35
BRANCH  33  38
ATOM     38  O   UNL     1      -5.888  -1.459   0.620  1.00  0.00    -0.389 OA
ATOM     39  H   UNL     1      -6.474  -2.251   0.742  1.00  0.00     0.211 HD
ENDBRANCH  33  38
ENDBRANCH  27  28
ENDBRANCH  16  27
BRANCH  14  40
ATOM     40  O   UNL     1      -2.106   2.013   1.109  1.00  0.00    -0.382 OA
ATOM     41  H   UNL     1      -3.030   1.710   0.915  1.00  0.00     0.212 HD
ENDBRANCH  14  40
BRANCH  14  42
ATOM     42  C   UNL     1      -2.498   4.064  -0.105  1.00  0.00     0.190 C 
ATOM     43  O   UNL     1      -2.303   4.818  -1.049  1.00  0.00    -0.294 OA
BRANCH  42  44
ATOM     44  C   UNL     1      -3.572   4.405   0.901  1.00  0.00     0.234 C 
BRANCH  44  45
ATOM     45  O   UNL     1      -4.034   5.718   0.726  1.00  0.00    -0.388 OA
ATOM     46  H   UNL     1      -4.674   5.695  -0.032  1.00  0.00     0.211 HD
ENDBRANCH  44  45
ENDBRANCH  42  44
ENDBRANCH  14  42
TORSDOF 11
