REMARK SMILES COc1cc2c(cc1OC)C(=O)C(CC1CCN(Cc3ccccc3)CC1)C2
REMARK SMILES IDX 15 1 16 2 17 3 18 4 26 5 27 6 14 7 13 8 3 9 8 10 4 11 7 12
REMARK SMILES IDX 5 13 6 14 28 15 11 16 12 17 2 18 1 19 9 20 10 21 19 22 20 23
REMARK SMILES IDX 21 24 25 25 22 26 24 27 23 28
REMARK H PARENT
REMARK Flexibility Score: inf
ROOT
ATOM      1  C   UNL     1       1.183   1.707  -0.902  1.00  0.00    -0.008 C 
ATOM      2  C   UNL     1       1.381   0.595  -1.955  1.00  0.00     0.019 C 
ATOM      3  C   UNL     1       1.789  -0.755  -1.348  1.00  0.00     0.085 C 
ATOM      4  N   UNL     1       2.956  -0.643  -0.455  1.00  0.00    -0.299 NA
ATOM      5  C   UNL     1       2.679   0.271   0.673  1.00  0.00     0.085 C 
ATOM      6  C   UNL     1       2.243   1.679   0.228  1.00  0.00     0.019 C 
ENDROOT
BRANCH   1   7
ATOM      7  C   UNL     1      -0.278   1.895  -0.404  1.00  0.00     0.016 C 
BRANCH   7   8
ATOM      8  C   UNL     1      -0.948   0.680   0.286  1.00  0.00     0.066 C 
ATOM      9  C   UNL     1      -5.531  -0.631  -0.230  1.00  0.00     0.161 A 
ATOM     10  C   UNL     1      -5.671   0.177   0.922  1.00  0.00     0.161 A 
ATOM     11  C   UNL     1      -4.255  -0.803  -0.817  1.00  0.00     0.055 A 
ATOM     12  C   UNL     1      -4.535   0.807   1.480  1.00  0.00     0.062 A 
ATOM     13  C   UNL     1      -3.155  -0.166  -0.244  1.00  0.00    -0.033 A 
ATOM     14  C   UNL     1      -3.298   0.613   0.870  1.00  0.00     0.025 A 
ATOM     15  C   UNL     1      -1.734  -0.234  -0.706  1.00  0.00     0.048 C 
ATOM     16  C   UNL     1      -2.009   1.136   1.245  1.00  0.00     0.166 C 
ATOM     17  O   UNL     1      -1.797   1.848   2.263  1.00  0.00    -0.294 OA
BRANCH   9  18
ATOM     18  O   UNL     1      -6.678  -1.242  -0.758  1.00  0.00    -0.493 OA
ATOM     19  C   UNL     1      -6.687  -2.079  -1.910  1.00  0.00     0.278 C 
ENDBRANCH   9  18
BRANCH  10  20
ATOM     20  O   UNL     1      -6.951   0.326   1.479  1.00  0.00    -0.493 OA
ATOM     21  C   UNL     1      -7.240   1.107   2.634  1.00  0.00     0.278 C 
ENDBRANCH  10  20
ENDBRANCH   7   8
ENDBRANCH   1   7
BRANCH   4  22
ATOM     22  C   UNL     1       4.206  -0.329  -1.180  1.00  0.00     0.120 C 
BRANCH  22  23
ATOM     23  C   UNL     1       5.405  -0.723  -0.360  1.00  0.00    -0.034 A 
ATOM     24  C   UNL     1       6.240   0.256   0.205  1.00  0.00     0.005 A 
ATOM     25  C   UNL     1       5.683  -2.081  -0.129  1.00  0.00     0.005 A 
ATOM     26  C   UNL     1       7.341  -0.120   0.981  1.00  0.00     0.000 A 
ATOM     27  C   UNL     1       6.784  -2.452   0.648  1.00  0.00     0.000 A 
ATOM     28  C   UNL     1       7.613  -1.473   1.202  1.00  0.00     0.000 A 
ENDBRANCH  22  23
ENDBRANCH   4  22
TORSDOF 6
