REMARK SMILES CNC(=O)c1cc(Oc2ccc(NC(=O)Nc3ccc(Cl)c(C(F)(F)F)c3)cc2)ccn1
REMARK SMILES IDX 9 1 10 2 11 3 12 4 28 5 29 6 8 7 7 8 5 9 32 10 6 11 31 12
REMARK SMILES IDX 30 13 3 14 1 15 2 16 4 18 13 19 14 20 15 22 16 23 17 25
REMARK SMILES IDX 27 26 18 27 22 28 19 29 20 30 21 31 23 32 24 33 25 34 26 35
REMARK H PARENT 2 17 13 21 16 24
REMARK Flexibility Score: inf
ROOT
ATOM      1  C   UNL     1      -1.791  -1.056   1.319  1.00  0.00     0.127 A 
ATOM      2  C   UNL     1      -1.114  -1.788   2.300  1.00  0.00     0.049 A 
ATOM      3  C   UNL     1       0.255  -2.043   2.175  1.00  0.00     0.030 A 
ATOM      4  C   UNL     1       0.975  -1.543   1.081  1.00  0.00     0.043 A 
ATOM      5  C   UNL     1       0.295  -0.808   0.094  1.00  0.00     0.030 A 
ATOM      6  C   UNL     1      -1.074  -0.555   0.218  1.00  0.00     0.049 A 
ENDROOT
BRANCH   1   7
ATOM      7  O   UNL     1      -3.161  -0.807   1.489  1.00  0.00    -0.457 OA
BRANCH   7   8
ATOM      8  C   UNL     1      -4.094  -0.651   0.454  1.00  0.00     0.131 A 
ATOM      9  C   UNL     1      -6.167   0.325  -0.346  1.00  0.00     0.131 A 
ATOM     10  N   UNL     1      -6.000  -0.332  -1.527  1.00  0.00    -0.251 NA
ATOM     11  C   UNL     1      -5.209   0.164   0.670  1.00  0.00     0.081 A 
ATOM     12  C   UNL     1      -4.935  -1.144  -1.758  1.00  0.00     0.116 A 
ATOM     13  C   UNL     1      -3.966  -1.324  -0.771  1.00  0.00     0.067 A 
BRANCH   9  14
ATOM     14  C   UNL     1      -7.349   1.192  -0.150  1.00  0.00     0.269 C 
ATOM     15  C   UNL     1      -9.495   2.197  -1.026  1.00  0.00     0.143 C 
ATOM     16  N   UNL     1      -8.326   1.343  -1.191  1.00  0.00    -0.354 N 
ATOM     17  H   UNL     1      -8.209   0.835  -2.097  1.00  0.00     0.163 HD
ATOM     18  O   UNL     1      -7.503   1.806   0.942  1.00  0.00    -0.268 OA
ENDBRANCH   9  14
ENDBRANCH   7   8
ENDBRANCH   1   7
BRANCH   4  19
ATOM     19  N   UNL     1       2.377  -1.840   0.965  1.00  0.00    -0.308 N 
ATOM     20  C   UNL     1       3.348  -0.947   0.397  1.00  0.00     0.323 C 
ATOM     21  H   UNL     1       2.731  -2.721   1.403  1.00  0.00     0.171 HD
ATOM     22  O   UNL     1       3.041   0.250   0.145  1.00  0.00    -0.248 OA
ATOM     23  N   UNL     1       4.671  -1.430   0.120  1.00  0.00    -0.308 N 
ATOM     24  H   UNL     1       4.810  -2.465   0.087  1.00  0.00     0.171 HD
BRANCH  23  25
ATOM     25  C   UNL     1       5.777  -0.587  -0.246  1.00  0.00     0.043 A 
ATOM     26  C   UNL     1       5.951   0.685   0.328  1.00  0.00     0.040 A 
ATOM     27  C   UNL     1       6.735  -1.067  -1.147  1.00  0.00     0.028 A 
ATOM     28  C   UNL     1       7.051   1.494  -0.024  1.00  0.00     0.076 A 
ATOM     29  C   UNL     1       7.828  -0.278  -1.504  1.00  0.00     0.023 A 
ATOM     30  C   UNL     1       7.991   0.998  -0.956  1.00  0.00     0.053 A 
ATOM     31  Cl  UNL     1       9.396   1.938  -1.453  1.00  0.00    -0.084 Cl
BRANCH  28  32
ATOM     32  C   UNL     1       7.226   2.865   0.594  1.00  0.00     0.417 C 
ATOM     33  F   UNL     1       7.240   3.825  -0.401  1.00  0.00    -0.166 F 
ATOM     34  F   UNL     1       8.422   2.911   1.288  1.00  0.00    -0.166 F 
ATOM     35  F   UNL     1       6.202   3.169   1.475  1.00  0.00    -0.166 F 
ENDBRANCH  28  32
ENDBRANCH  23  25
ENDBRANCH   4  19
TORSDOF 6
