REMARK SMILES COc1ccc2c(c1)[C@]13CCCC[C@@H]1[C@H](C2)N(C)CC3
REMARK SMILES IDX 14 1 13 2 12 3 11 4 10 5 9 6 20 7 19 8 17 9 18 10 15 11
REMARK SMILES IDX 16 12 6 13 7 14 8 15 3 16 4 17 5 18 2 19 1 20
REMARK H PARENT
REMARK Flexibility Score: inf
ROOT
ATOM      1  C   UNL     1      -1.566   0.460   0.561  1.00  0.00     0.017 C 
ATOM      2  C   UNL     1      -1.546   0.664   2.089  1.00  0.00     0.006 C 
ATOM      3  C   UNL     1      -1.342   2.156   2.434  1.00  0.00     0.000 C 
ATOM      4  C   UNL     1      -0.634   2.953   1.315  1.00  0.00     0.001 C 
ATOM      5  C   UNL     1       0.410   2.095   0.587  1.00  0.00     0.012 C 
ATOM      6  C   UNL     1      -0.192   0.803  -0.080  1.00  0.00     0.001 C 
ATOM      7  C   UNL     1      -0.455   1.021  -1.602  1.00  0.00     0.027 C 
ATOM      8  C   UNL     1      -1.653   0.200  -2.149  1.00  0.00     0.085 C 
ATOM      9  N   UNL     1      -1.851  -1.074  -1.416  1.00  0.00    -0.303 NA
ATOM     10  C   UNL     1      -2.981  -1.821  -1.990  1.00  0.00     0.105 C 
ATOM     11  C   UNL     1      -1.983  -0.944   0.069  1.00  0.00     0.064 C 
ATOM     12  C   UNL     1      -1.068  -1.994   0.706  1.00  0.00     0.055 C 
ATOM     13  C   UNL     1       0.385  -1.674   0.446  1.00  0.00    -0.042 A 
ATOM     14  C   UNL     1       0.809  -0.367   0.081  1.00  0.00    -0.034 A 
ATOM     15  C   UNL     1       2.174  -0.167  -0.224  1.00  0.00     0.051 A 
ATOM     16  C   UNL     1       3.110  -1.208  -0.095  1.00  0.00     0.119 A 
ATOM     17  C   UNL     1       2.677  -2.467   0.322  1.00  0.00     0.047 A 
ATOM     18  C   UNL     1       1.329  -2.701   0.588  1.00  0.00     0.008 A 
ENDROOT
BRANCH  16  19
ATOM     19  O   UNL     1       4.474  -1.033  -0.372  1.00  0.00    -0.497 OA
ATOM     20  C   UNL     1       5.058   0.192  -0.804  1.00  0.00     0.278 C 
ENDBRANCH  16  19
TORSDOF 1
