REMARK SMILES Cc1onc(-c2ccccc2)c1-c1ccc(S(N)(=O)=O)cc1
REMARK SMILES IDX 13 1 14 2 15 3 16 4 21 5 22 6 12 7 1 8 2 9 3 10 5 11 4 12
REMARK SMILES IDX 6 13 7 14 11 15 8 16 10 17 9 18 17 19 19 20 20 21 18 22
REMARK H PARENT 18 23 18 24
REMARK Flexibility Score: inf
ROOT
ATOM      1  C   UNL     1       0.324  -0.967   0.294  1.00  0.00    -0.012 A 
ATOM      2  C   UNL     1       0.387   0.061   1.248  1.00  0.00     0.010 A 
ATOM      3  C   UNL     1       1.590   0.732   1.484  1.00  0.00     0.022 A 
ATOM      4  C   UNL     1       2.746   0.377   0.776  1.00  0.00     0.082 A 
ATOM      5  C   UNL     1       2.685  -0.647  -0.179  1.00  0.00     0.022 A 
ATOM      6  C   UNL     1       1.482  -1.318  -0.416  1.00  0.00     0.010 A 
ENDROOT
BRANCH   1   7
ATOM      7  C   UNL     1      -0.951  -1.673   0.041  1.00  0.00     0.052 A 
ATOM      8  C   UNL     1      -0.151  -4.122   0.209  1.00  0.00     0.091 C 
ATOM      9  C   UNL     1      -1.169  -3.040   0.048  1.00  0.00     0.142 A 
ATOM     10  O   UNL     1      -2.454  -3.260  -0.104  1.00  0.00    -0.360 OA
ATOM     11  C   UNL     1      -2.223  -1.136  -0.118  1.00  0.00     0.121 A 
ATOM     12  N   UNL     1      -3.116  -2.144  -0.203  1.00  0.00    -0.079 NA
BRANCH  11  13
ATOM     13  C   UNL     1      -2.604   0.289  -0.227  1.00  0.00     0.004 A 
ATOM     14  C   UNL     1      -3.840   0.720   0.284  1.00  0.00     0.010 A 
ATOM     15  C   UNL     1      -1.769   1.218  -0.874  1.00  0.00     0.010 A 
ATOM     16  C   UNL     1      -4.218   2.063   0.180  1.00  0.00     0.001 A 
ATOM     17  C   UNL     1      -2.151   2.559  -0.975  1.00  0.00     0.001 A 
ATOM     18  C   UNL     1      -3.373   2.982  -0.445  1.00  0.00     0.000 A 
ENDBRANCH  11  13
ENDBRANCH   1   7
BRANCH   4  19
ATOM     19  S   UNL     1       4.257   1.234   1.059  1.00  0.00     0.238 S 
ATOM     20  O   UNL     1       5.418   0.304   0.840  1.00  0.00    -0.207 OA
ATOM     21  O   UNL     1       4.301   1.735   2.475  1.00  0.00    -0.207 OA
BRANCH  19  22
ATOM     22  N   UNL     1       4.371   2.572  -0.030  1.00  0.00    -0.225 NA
ATOM     23  H   UNL     1       4.378   2.178  -0.998  1.00  0.00     0.137 HD
ATOM     24  H   UNL     1       5.305   3.012   0.123  1.00  0.00     0.137 HD
ENDBRANCH  19  22
ENDBRANCH   4  19
TORSDOF 4
