REMARK SMILES NS(=O)(=O)c1cc2c(cc1C(F)(F)F)NC(Cc1ccccc1)NS2(=O)=O
REMARK SMILES IDX 5 1 6 2 7 3 8 4 15 5 16 6 24 7 25 8 26 9 27 10 9 11 10 12
REMARK SMILES IDX 2 15 3 16 4 17 1 18 11 21 12 22 13 23 14 24 17 25 18 26
REMARK SMILES IDX 19 27 23 28 20 29 22 30 21 31
REMARK H PARENT 15 13 24 14 1 19 1 20
REMARK Flexibility Score: inf
ROOT
ATOM      1  C   UNL     1      -3.364   0.879  -0.081  1.00  0.00     0.095 A 
ATOM      2  C   UNL     1      -2.146   1.574  -0.166  1.00  0.00     0.046 A 
ATOM      3  C   UNL     1      -1.022   0.983  -0.743  1.00  0.00     0.107 A 
ATOM      4  C   UNL     1      -1.088  -0.318  -1.242  1.00  0.00     0.056 A 
ATOM      5  N   UNL     1       0.065  -0.929  -1.842  1.00  0.00    -0.368 N 
ATOM      6  C   UNL     1       1.439  -0.515  -1.537  1.00  0.00     0.166 C 
ATOM      7  N   UNL     1       1.621   0.927  -1.783  1.00  0.00    -0.189 NA
ATOM      8  S   UNL     1       0.467   1.889  -0.909  1.00  0.00     0.244 S 
ATOM      9  O   UNL     1       1.008   2.238   0.449  1.00  0.00    -0.207 OA
ATOM     10  O   UNL     1       0.201   3.150  -1.682  1.00  0.00    -0.207 OA
ATOM     11  C   UNL     1      -2.295  -1.023  -1.170  1.00  0.00     0.041 A 
ATOM     12  C   UNL     1      -3.438  -0.459  -0.566  1.00  0.00     0.078 A 
ATOM     13  H   UNL     1      -0.069  -1.768  -2.452  1.00  0.00     0.162 HD
ATOM     14  H   UNL     1       2.582   1.221  -1.496  1.00  0.00     0.143 HD
ENDROOT
BRANCH   1  15
ATOM     15  S   UNL     1      -4.738   1.730   0.658  1.00  0.00     0.238 S 
ATOM     16  O   UNL     1      -4.502   3.214   0.597  1.00  0.00    -0.207 OA
ATOM     17  O   UNL     1      -6.011   1.437  -0.086  1.00  0.00    -0.207 OA
BRANCH  15  18
ATOM     18  N   UNL     1      -4.902   1.269   2.319  1.00  0.00    -0.225 NA
ATOM     19  H   UNL     1      -5.849   0.845   2.438  1.00  0.00     0.137 HD
ATOM     20  H   UNL     1      -4.204   0.516   2.510  1.00  0.00     0.137 HD
ENDBRANCH  15  18
ENDBRANCH   1  15
BRANCH  12  21
ATOM     21  C   UNL     1      -4.716  -1.278  -0.519  1.00  0.00     0.417 C 
ATOM     22  F   UNL     1      -5.313  -1.186   0.723  1.00  0.00    -0.166 F 
ATOM     23  F   UNL     1      -5.591  -0.823  -1.488  1.00  0.00    -0.166 F 
ATOM     24  F   UNL     1      -4.469  -2.619  -0.758  1.00  0.00    -0.166 F 
ENDBRANCH  12  21
BRANCH   6  25
ATOM     25  C   UNL     1       1.824  -0.950  -0.103  1.00  0.00     0.077 C 
BRANCH  25  26
ATOM     26  C   UNL     1       3.303  -0.806   0.159  1.00  0.00    -0.045 A 
ATOM     27  C   UNL     1       4.213  -1.708  -0.418  1.00  0.00     0.004 A 
ATOM     28  C   UNL     1       3.789   0.235   0.968  1.00  0.00     0.004 A 
ATOM     29  C   UNL     1       5.585  -1.569  -0.190  1.00  0.00     0.000 A 
ATOM     30  C   UNL     1       5.162   0.372   1.193  1.00  0.00     0.000 A 
ATOM     31  C   UNL     1       6.060  -0.529   0.614  1.00  0.00     0.000 A 
ENDBRANCH  25  26
ENDBRANCH   6  25
TORSDOF 5
