REMARK SMILES CC1(C)O[C@@H]2C[C@H]3[C@@H]4C[C@H](F)C5=CC(=O)CC[C@]5(C)[C@H]4[C@@H](O)C[C@]3(C)[C@]2(C(=O)CO)O1
REMARK SMILES IDX 27 1 28 2 26 3 1 4 2 5 3 6 4 7 31 8 5 9 6 10 24 11 7 12
REMARK SMILES IDX 23 13 25 14 8 15 21 16 9 17 20 18 10 19 18 20 11 21 12 22
REMARK SMILES IDX 17 23 19 24 13 25 16 26 14 27 15 28 22 29 29 31 30 32
REMARK H PARENT 22 30 30 33
REMARK Flexibility Score: inf
ROOT
ATOM      1  C   UNL     1      -3.597   1.785   0.279  1.00  0.00     0.193 C 
ATOM      2  O   UNL     1      -4.130   2.468  -0.584  1.00  0.00    -0.294 OA
ENDROOT
BRANCH   1   3
ATOM      3  C   UNL     1      -2.662   0.638  -0.106  1.00  0.00     0.164 C 
ATOM      4  C   UNL     1      -5.159  -1.258   0.485  1.00  0.00     0.075 C 
ATOM      5  C   UNL     1      -3.699  -1.360   0.021  1.00  0.00     0.164 C 
ATOM      6  C   UNL     1      -3.177  -2.777   0.280  1.00  0.00     0.075 C 
ATOM      7  O   UNL     1      -3.636  -1.098  -1.364  1.00  0.00    -0.344 OA
ATOM      8  O   UNL     1      -2.910  -0.444   0.750  1.00  0.00    -0.333 OA
ATOM      9  C   UNL     1      -2.896   0.077  -1.513  1.00  0.00     0.162 C 
ATOM     10  C   UNL     1      -1.509  -0.240  -2.118  1.00  0.00     0.040 C 
ATOM     11  C   UNL     1      -1.149   1.028  -0.096  1.00  0.00     0.012 C 
ATOM     12  C   UNL     1      -0.555  -0.119  -0.936  1.00  0.00     0.005 C 
ATOM     13  C   UNL     1      -0.465   1.024   1.298  1.00  0.00     0.042 C 
ATOM     14  C   UNL     1      -0.983   2.439  -0.762  1.00  0.00     0.015 C 
ATOM     15  C   UNL     1       0.967   0.034  -1.168  1.00  0.00     0.002 C 
ATOM     16  C   UNL     1       1.091   1.073   1.212  1.00  0.00     0.119 C 
ATOM     17  C   UNL     1       1.555  -1.017  -2.157  1.00  0.00     0.046 C 
ATOM     18  C   UNL     1       1.659  -0.010   0.237  1.00  0.00     0.031 C 
ATOM     19  C   UNL     1       2.499  -2.051  -1.527  1.00  0.00     0.193 C 
ATOM     20  C   UNL     1       3.225  -0.119   0.127  1.00  0.00    -0.002 C 
ATOM     21  F   UNL     1       1.764  -2.974  -0.802  1.00  0.00    -0.243 F 
ATOM     22  C   UNL     1       3.539  -1.419  -0.624  1.00  0.00    -0.027 C 
ATOM     23  C   UNL     1       3.860  -0.187   1.550  1.00  0.00     0.020 C 
ATOM     24  C   UNL     1       3.849   1.066  -0.658  1.00  0.00     0.016 C 
ATOM     25  C   UNL     1       4.690  -2.083  -0.414  1.00  0.00     0.050 C 
ATOM     26  C   UNL     1       5.362  -0.507   1.522  1.00  0.00     0.081 C 
ATOM     27  C   UNL     1       5.661  -1.653   0.602  1.00  0.00     0.155 C 
ATOM     28  O   UNL     1       6.766  -2.250   0.695  1.00  0.00    -0.295 OA
BRANCH  16  29
ATOM     29  O   UNL     1       1.533   2.354   0.852  1.00  0.00    -0.393 OA
ATOM     30  H   UNL     1       1.383   2.945   1.635  1.00  0.00     0.210 HD
ENDBRANCH  16  29
ENDBRANCH   1   3
BRANCH   1  31
ATOM     31  C   UNL     1      -3.830   2.143   1.724  1.00  0.00     0.234 C 
BRANCH  31  32
ATOM     32  O   UNL     1      -5.182   1.973   2.051  1.00  0.00    -0.388 OA
ATOM     33  H   UNL     1      -5.664   2.765   1.696  1.00  0.00     0.211 HD
ENDBRANCH  31  32
ENDBRANCH   1  31
TORSDOF 4
