REMARK SMILES O=C(CCCN1CCC(O)(c2ccc(Cl)cc2)CC1)c1ccc(F)cc1
REMARK SMILES IDX 4 1 5 2 6 3 9 4 8 5 18 6 7 7 19 8 10 9 11 11 12 12 17 13
REMARK SMILES IDX 13 14 16 15 14 16 15 17 3 18 2 19 1 20 20 21 21 22 26 23
REMARK SMILES IDX 22 24 25 25 23 26 24 27
REMARK H PARENT 10 10
REMARK Flexibility Score: inf
ROOT
ATOM      1  C   UNL     1       1.931   1.239  -1.579  1.00  0.00     0.024 C 
ENDROOT
BRANCH   1   2
ATOM      2  C   UNL     1       0.960   1.075  -0.396  1.00  0.00     0.085 C 
BRANCH   2   3
ATOM      3  N   UNL     1      -0.435   1.339  -0.813  1.00  0.00    -0.303 NA
ATOM      4  C   UNL     1      -2.710  -0.531  -0.119  1.00  0.00     0.092 C 
ATOM      5  C   UNL     1      -1.914   0.301   0.934  1.00  0.00     0.056 C 
ATOM      6  C   UNL     1      -2.439   0.001  -1.558  1.00  0.00     0.056 C 
ATOM      7  C   UNL     1      -1.315   1.594   0.355  1.00  0.00     0.088 C 
ATOM      8  C   UNL     1      -0.943   0.292  -1.741  1.00  0.00     0.088 C 
BRANCH   4   9
ATOM      9  O   UNL     1      -2.237  -1.860  -0.035  1.00  0.00    -0.385 OA
ATOM     10  H   UNL     1      -2.648  -2.390  -0.768  1.00  0.00     0.211 HD
ENDBRANCH   4   9
BRANCH   4  11
ATOM     11  C   UNL     1      -4.214  -0.476   0.201  1.00  0.00    -0.016 A 
ATOM     12  C   UNL     1      -4.923  -1.623   0.624  1.00  0.00     0.008 A 
ATOM     13  C   UNL     1      -4.912   0.750   0.143  1.00  0.00     0.008 A 
ATOM     14  C   UNL     1      -6.284  -1.550   0.933  1.00  0.00     0.021 A 
ATOM     15  C   UNL     1      -6.272   0.817   0.456  1.00  0.00     0.021 A 
ATOM     16  C   UNL     1      -6.960  -0.332   0.845  1.00  0.00     0.041 A 
ATOM     17  Cl  UNL     1      -8.668  -0.244   1.238  1.00  0.00    -0.084 Cl
ENDBRANCH   4  11
ENDBRANCH   2   3
ENDBRANCH   1   2
BRANCH   1  18
ATOM     18  C   UNL     1       3.400   1.099  -1.146  1.00  0.00     0.082 C 
BRANCH  18  19
ATOM     19  C   UNL     1       3.750  -0.292  -0.671  1.00  0.00     0.162 C 
ATOM     20  O   UNL     1       3.154  -1.284  -1.176  1.00  0.00    -0.294 OA
BRANCH  19  21
ATOM     21  C   UNL     1       4.816  -0.527   0.336  1.00  0.00     0.018 A 
ATOM     22  C   UNL     1       5.810   0.438   0.592  1.00  0.00     0.015 A 
ATOM     23  C   UNL     1       4.855  -1.743   1.046  1.00  0.00     0.015 A 
ATOM     24  C   UNL     1       6.804   0.197   1.546  1.00  0.00     0.040 A 
ATOM     25  C   UNL     1       5.852  -1.980   1.997  1.00  0.00     0.040 A 
ATOM     26  C   UNL     1       6.823  -1.009   2.250  1.00  0.00     0.123 A 
ATOM     27  F   UNL     1       7.789  -1.241   3.174  1.00  0.00    -0.207 F 
ENDBRANCH  19  21
ENDBRANCH  18  19
ENDBRANCH   1  18
TORSDOF 7
