REMARK SMILES CN1CC[C@]23c4c5ccc(O)c4O[C@H]2[C@@H](O)C=C[C@H]3[C@H]1C5
REMARK SMILES IDX 14 1 13 2 12 3 10 4 9 5 8 6 7 7 6 8 5 9 4 10 3 11 2 12 1 13
REMARK SMILES IDX 20 14 21 15 19 16 18 17 17 18 15 19 16 20 11 22
REMARK H PARENT 16 21 11 23
REMARK Flexibility Score: inf
ROOT
ATOM      1  C   UNL     1      -1.684  -0.965   1.170  1.00  0.00     0.217 C 
ATOM      2  O   UNL     1      -2.629   0.055   0.819  1.00  0.00    -0.482 OA
ATOM      3  C   UNL     1      -2.010   1.064   0.113  1.00  0.00     0.165 A 
ATOM      4  C   UNL     1      -2.626   2.107  -0.578  1.00  0.00     0.158 A 
ATOM      5  C   UNL     1      -1.833   2.888  -1.443  1.00  0.00     0.050 A 
ATOM      6  C   UNL     1      -0.480   2.551  -1.659  1.00  0.00     0.008 A 
ATOM      7  C   UNL     1       0.106   1.489  -0.943  1.00  0.00    -0.039 A 
ATOM      8  C   UNL     1      -0.666   0.855   0.035  1.00  0.00     0.012 A 
ATOM      9  C   UNL     1      -0.270  -0.352   0.827  1.00  0.00     0.048 C 
ATOM     10  C   UNL     1       0.513   0.081   2.106  1.00  0.00     0.032 C 
ATOM     11  C   UNL     1       2.035  -0.139   1.991  1.00  0.00     0.085 C 
ATOM     12  N   UNL     1       2.551   0.261   0.665  1.00  0.00    -0.302 NA
ATOM     13  C   UNL     1       4.003   0.034   0.591  1.00  0.00     0.105 C 
ATOM     14  C   UNL     1       1.841  -0.338  -0.506  1.00  0.00     0.068 C 
ATOM     15  C   UNL     1       1.391   0.844  -1.412  1.00  0.00     0.055 C 
ATOM     16  C   UNL     1       0.627  -1.228  -0.075  1.00  0.00     0.044 C 
ATOM     17  C   UNL     1      -0.173  -1.786  -1.232  1.00  0.00    -0.022 C 
ATOM     18  C   UNL     1      -1.415  -2.241  -1.012  1.00  0.00     0.004 C 
ATOM     19  C   UNL     1      -1.978  -2.276   0.390  1.00  0.00     0.178 C 
ENDROOT
BRANCH  19  20
ATOM     20  O   UNL     1      -3.358  -2.521   0.336  1.00  0.00    -0.385 OA
ATOM     21  H   UNL     1      -3.638  -2.782   1.252  1.00  0.00     0.211 HD
ENDBRANCH  19  20
BRANCH   4  22
ATOM     22  O   UNL     1      -3.992   2.337  -0.438  1.00  0.00    -0.504 OA
ATOM     23  H   UNL     1      -4.455   3.083  -0.943  1.00  0.00     0.293 HD
ENDBRANCH   4  22
TORSDOF 2
