REMARK SMILES CN(C)CCC(c1ccc(Br)cc1)c1ccccn1
REMARK SMILES IDX 5 1 4 2 2 3 1 4 3 5 6 6 7 7 8 8 13 9 9 10 12 11 10 12 11 13
REMARK SMILES IDX 14 14 15 15 19 16 16 17 18 18 17 19
REMARK H PARENT
REMARK Flexibility Score: inf
ROOT
ATOM      1  C   UNL     1       1.131   0.440   0.176  1.00  0.00     0.030 C 
ENDROOT
BRANCH   1   2
ATOM      2  C   UNL     1       1.839  -0.878   0.534  1.00  0.00     0.085 C 
BRANCH   2   3
ATOM      3  N   UNL     1       3.252  -0.843   0.097  1.00  0.00    -0.309 NA
ATOM      4  C   UNL     1       4.065  -1.748   0.926  1.00  0.00     0.104 C 
ATOM      5  C   UNL     1       3.377  -1.236  -1.318  1.00  0.00     0.104 C 
ENDBRANCH   2   3
ENDBRANCH   1   2
BRANCH   1   6
ATOM      6  C   UNL     1      -0.312   0.497   0.734  1.00  0.00     0.069 C 
BRANCH   6   7
ATOM      7  C   UNL     1      -1.223  -0.599   0.202  1.00  0.00    -0.039 A 
ATOM      8  C   UNL     1      -1.296  -0.904  -1.173  1.00  0.00     0.005 A 
ATOM      9  C   UNL     1      -2.055  -1.299   1.095  1.00  0.00     0.005 A 
ATOM     10  C   UNL     1      -2.161  -1.900  -1.633  1.00  0.00     0.016 A 
ATOM     11  C   UNL     1      -2.919  -2.295   0.630  1.00  0.00     0.016 A 
ATOM     12  C   UNL     1      -2.971  -2.598  -0.733  1.00  0.00     0.017 A 
ATOM     13  Br  UNL     1      -4.153  -3.958  -1.366  1.00  0.00    -0.051 Br
ENDBRANCH   6   7
BRANCH   6  14
ATOM     14  C   UNL     1      -0.948   1.855   0.529  1.00  0.00     0.048 A 
ATOM     15  C   UNL     1      -1.034   2.455  -0.742  1.00  0.00     0.024 A 
ATOM     16  N   UNL     1      -1.486   2.498   1.603  1.00  0.00    -0.261 NA
ATOM     17  C   UNL     1      -1.655   3.698  -0.874  1.00  0.00     0.003 A 
ATOM     18  C   UNL     1      -2.094   3.709   1.493  1.00  0.00     0.111 A 
ATOM     19  C   UNL     1      -2.188   4.333   0.248  1.00  0.00     0.020 A 
ENDBRANCH   6  14
ENDBRANCH   1   6
TORSDOF 5
