REMARK SMILES NS(=O)(=O)c1cc(C(=O)O)c(NCc2ccco2)cc1Cl
REMARK SMILES IDX 5 1 20 2 21 3 19 4 11 5 7 6 6 7 2 8 3 9 4 10 1 11 8 14 9 15
REMARK SMILES IDX 10 16 12 18 13 20 14 21 15 22 18 23 16 24 17 25
REMARK H PARENT 1 12 1 13 10 17 12 19
REMARK Flexibility Score: inf
ROOT
ATOM      1  C   UNL     1      -2.940  -0.337  -0.611  1.00  0.00     0.101 A 
ATOM      2  C   UNL     1      -2.087  -1.078  -1.448  1.00  0.00     0.063 A 
ATOM      3  Cl  UNL     1      -2.711  -2.193  -2.661  1.00  0.00    -0.083 Cl
ATOM      4  C   UNL     1      -0.702  -0.926  -1.343  1.00  0.00     0.048 A 
ATOM      5  C   UNL     1      -0.137  -0.042  -0.408  1.00  0.00     0.051 A 
ATOM      6  C   UNL     1      -0.992   0.691   0.453  1.00  0.00     0.084 A 
ATOM      7  C   UNL     1      -2.384   0.544   0.327  1.00  0.00     0.041 A 
ENDROOT
BRANCH   1   8
ATOM      8  S   UNL     1      -4.698  -0.501  -0.727  1.00  0.00     0.239 S 
ATOM      9  O   UNL     1      -5.150  -0.040  -2.084  1.00  0.00    -0.207 OA
ATOM     10  O   UNL     1      -5.082  -1.941  -0.531  1.00  0.00    -0.207 OA
BRANCH   8  11
ATOM     11  N   UNL     1      -5.488   0.455   0.480  1.00  0.00    -0.225 NA
ATOM     12  H   UNL     1      -5.298   0.003   1.402  1.00  0.00     0.137 HD
ATOM     13  H   UNL     1      -6.516   0.371   0.312  1.00  0.00     0.137 HD
ENDBRANCH   8  11
ENDBRANCH   1   8
BRANCH   6  14
ATOM     14  C   UNL     1      -0.473   1.578   1.522  1.00  0.00     0.337 C 
ATOM     15  O   UNL     1       0.648   1.358   2.055  1.00  0.00    -0.246 OA
BRANCH  14  16
ATOM     16  O   UNL     1      -1.248   2.640   1.981  1.00  0.00    -0.478 OA
ATOM     17  H   UNL     1      -0.914   3.245   2.722  1.00  0.00     0.297 HD
ENDBRANCH  14  16
ENDBRANCH   6  14
BRANCH   5  18
ATOM     18  N   UNL     1       1.288   0.165  -0.387  1.00  0.00    -0.377 N 
ATOM     19  H   UNL     1       1.653   1.122  -0.180  1.00  0.00     0.161 HD
BRANCH  18  20
ATOM     20  C   UNL     1       2.242  -0.872  -0.780  1.00  0.00     0.188 C 
BRANCH  20  21
ATOM     21  C   UNL     1       3.592  -0.580  -0.205  1.00  0.00     0.122 A 
ATOM     22  C   UNL     1       4.583   0.167  -0.810  1.00  0.00     0.047 A 
ATOM     23  O   UNL     1       3.985  -0.973   0.984  1.00  0.00    -0.467 OA
ATOM     24  C   UNL     1       5.624   0.198   0.093  1.00  0.00     0.042 A 
ATOM     25  C   UNL     1       5.202  -0.525   1.191  1.00  0.00     0.195 A 
ENDBRANCH  20  21
ENDBRANCH  18  20
ENDBRANCH   5  18
TORSDOF 7
