REMARK SMILES NCCCC(O)(P(=O)(O)O)P(=O)(O)O
REMARK SMILES IDX 4 1 3 2 2 3 1 4 5 7 6 8 7 10 8 11 9 12 10 14 11 16 12 17
REMARK SMILES IDX 13 18 14 20
REMARK H PARENT 1 5 1 6 6 9 9 13 10 15 13 19 14 21
REMARK Flexibility Score: inf
ROOT
ATOM      1  C   UNL     1       0.597  -0.092  -0.728  1.00  0.00     0.063 C 
ENDROOT
BRANCH   1   2
ATOM      2  C   UNL     1       1.201   0.572   0.526  1.00  0.00     0.019 C 
BRANCH   2   3
ATOM      3  C   UNL     1       2.672   0.957   0.324  1.00  0.00     0.078 C 
BRANCH   3   4
ATOM      4  N   UNL     1       3.520  -0.231   0.250  1.00  0.00    -0.330 NA
ATOM      5  H   UNL     1       4.511   0.077   0.374  1.00  0.00     0.118 HD
ATOM      6  H   UNL     1       3.458  -0.620  -0.719  1.00  0.00     0.118 HD
ENDBRANCH   3   4
ENDBRANCH   2   3
ENDBRANCH   1   2
BRANCH   1   7
ATOM      7  C   UNL     1      -0.920  -0.429  -0.656  1.00  0.00     0.267 C 
BRANCH   7   8
ATOM      8  O   UNL     1      -1.306  -1.001  -1.881  1.00  0.00    -0.368 OA
ATOM      9  H   UNL     1      -0.806  -1.851  -1.995  1.00  0.00     0.213 HD
ENDBRANCH   7   8
BRANCH   7  10
ATOM     10  P   UNL     1      -1.294  -1.626   0.691  1.00  0.00     0.369 P 
ATOM     11  O   UNL     1      -1.170  -0.974   2.050  1.00  0.00    -0.256 OA
BRANCH  10  12
ATOM     12  O   UNL     1      -0.210  -2.922   0.598  1.00  0.00    -0.322 OA
ATOM     13  H   UNL     1      -0.513  -3.556   1.296  1.00  0.00     0.221 HD
ENDBRANCH  10  12
BRANCH  10  14
ATOM     14  O   UNL     1      -2.869  -2.217   0.498  1.00  0.00    -0.322 OA
ATOM     15  H   UNL     1      -3.458  -1.495   0.831  1.00  0.00     0.221 HD
ENDBRANCH  10  14
ENDBRANCH   7  10
BRANCH   7  16
ATOM     16  P   UNL     1      -1.934   1.084  -0.436  1.00  0.00     0.369 P 
ATOM     17  O   UNL     1      -3.377   0.766  -0.758  1.00  0.00    -0.256 OA
BRANCH  16  18
ATOM     18  O   UNL     1      -1.839   1.656   1.155  1.00  0.00    -0.322 OA
ATOM     19  H   UNL     1      -2.404   2.470   1.167  1.00  0.00     0.221 HD
ENDBRANCH  16  18
BRANCH  16  20
ATOM     20  O   UNL     1      -1.384   2.282  -1.498  1.00  0.00    -0.322 OA
ATOM     21  H   UNL     1      -1.962   3.066  -1.318  1.00  0.00     0.221 HD
ENDBRANCH  16  20
ENDBRANCH   7  16
ENDBRANCH   1   7
TORSDOF 11
