REMARK SMILES CCCCC[C@H](O)CC[C@@H]1[C@H]2Cc3cccc(OCC(=O)O)c3C[C@H]2C[C@H]1O
REMARK SMILES IDX 9 1 10 2 25 3 26 4 11 5 24 6 27 7 12 8 23 9 13 10 17 11
REMARK SMILES IDX 14 12 16 13 15 14 28 15 18 17 19 18 20 19 21 20 22 21 8 23
REMARK SMILES IDX 6 24 7 25 5 27 4 28 3 29 2 30 1 31
REMARK H PARENT 28 16 22 22 7 26
REMARK Flexibility Score: inf
ROOT
ATOM      1  C   UNL     1      -1.161   1.488  -0.260  1.00  0.00     0.009 C 
ENDROOT
BRANCH   1   2
ATOM      2  C   UNL     1      -0.278   0.267  -0.622  1.00  0.00     0.022 C 
ATOM      3  C   UNL     1       2.029   0.967  -0.738  1.00  0.00    -0.000 C 
ATOM      4  C   UNL     1       1.687   0.436  -2.122  1.00  0.00     0.036 C 
ATOM      5  C   UNL     1       1.037   0.275   0.191  1.00  0.00     0.002 C 
ATOM      6  C   UNL     1       3.515   0.831  -0.344  1.00  0.00     0.043 C 
ATOM      7  C   UNL     1       0.162   0.281  -2.113  1.00  0.00     0.118 C 
ATOM      8  C   UNL     1       1.462  -1.174   0.515  1.00  0.00     0.040 C 
ATOM      9  C   UNL     1       3.880  -0.394   0.464  1.00  0.00    -0.002 A 
ATOM     10  C   UNL     1       2.898  -1.292   0.937  1.00  0.00    -0.041 A 
ATOM     11  C   UNL     1       5.234  -0.593   0.814  1.00  0.00     0.123 A 
ATOM     12  C   UNL     1       3.283  -2.399   1.710  1.00  0.00     0.004 A 
ATOM     13  C   UNL     1       5.592  -1.700   1.607  1.00  0.00     0.047 A 
ATOM     14  C   UNL     1       4.620  -2.596   2.048  1.00  0.00     0.004 A 
BRANCH   7  15
ATOM     15  O   UNL     1      -0.201  -0.914  -2.753  1.00  0.00    -0.393 OA
ATOM     16  H   UNL     1      -1.183  -0.873  -2.891  1.00  0.00     0.210 HD
ENDBRANCH   7  15
BRANCH  11  17
ATOM     17  O   UNL     1       6.193   0.329   0.358  1.00  0.00    -0.482 OA
BRANCH  17  18
ATOM     18  C   UNL     1       7.588   0.255   0.640  1.00  0.00     0.351 C 
BRANCH  18  19
ATOM     19  C   UNL     1       8.283   1.402  -0.015  1.00  0.00     0.341 C 
ATOM     20  O   UNL     1       9.325   1.204  -0.697  1.00  0.00    -0.248 OA
BRANCH  19  21
ATOM     21  O   UNL     1       7.798   2.695   0.155  1.00  0.00    -0.479 OA
ATOM     22  H   UNL     1       8.262   3.484  -0.278  1.00  0.00     0.296 HD
ENDBRANCH  19  21
ENDBRANCH  18  19
ENDBRANCH  17  18
ENDBRANCH  11  17
ENDBRANCH   1   2
BRANCH   1  23
ATOM     23  C   UNL     1      -2.566   1.461  -0.897  1.00  0.00     0.032 C 
BRANCH  23  24
ATOM     24  C   UNL     1      -3.495   0.363  -0.334  1.00  0.00     0.114 C 
BRANCH  24  25
ATOM     25  O   UNL     1      -3.593   0.501   1.062  1.00  0.00    -0.393 OA
ATOM     26  H   UNL     1      -2.944  -0.133   1.465  1.00  0.00     0.210 HD
ENDBRANCH  24  25
BRANCH  24  27
ATOM     27  C   UNL     1      -4.899   0.490  -0.960  1.00  0.00     0.032 C 
BRANCH  27  28
ATOM     28  C   UNL     1      -5.780  -0.763  -0.775  1.00  0.00     0.003 C 
BRANCH  28  29
ATOM     29  C   UNL     1      -6.169  -1.092   0.677  1.00  0.00    -0.000 C 
BRANCH  29  30
ATOM     30  C   UNL     1      -6.976   0.027   1.353  1.00  0.00    -0.003 C 
ATOM     31  C   UNL     1      -7.492  -0.415   2.719  1.00  0.00     0.004 C 
ENDBRANCH  29  30
ENDBRANCH  28  29
ENDBRANCH  27  28
ENDBRANCH  24  27
ENDBRANCH  23  24
ENDBRANCH   1  23
TORSDOF 13
