REMARK SMILES O=C(O)c1cc(/N=N/c2ccc(S(=O)(=O)Nc3ccccn3)cc2)ccc1O
REMARK SMILES IDX 9 1 10 2 11 3 12 4 23 5 24 6 8 7 7 8 6 9 4 10 5 11 27 12
REMARK SMILES IDX 26 13 25 14 2 15 1 16 3 17 28 19 13 21 14 22 15 23 16 24
REMARK SMILES IDX 17 26 22 27 18 28 21 29 19 30 20 31
REMARK H PARENT 3 18 28 20 16 25
REMARK Flexibility Score: inf
ROOT
ATOM      1  C   UNL     1       0.091  -0.986  -0.351  1.00  0.00     0.086 A 
ATOM      2  C   UNL     1      -0.736  -1.089  -1.475  1.00  0.00     0.031 A 
ATOM      3  C   UNL     1      -2.074  -1.470  -1.337  1.00  0.00     0.024 A 
ATOM      4  C   UNL     1      -2.600  -1.748  -0.068  1.00  0.00     0.088 A 
ATOM      5  C   UNL     1      -1.774  -1.654   1.060  1.00  0.00     0.024 A 
ATOM      6  C   UNL     1      -0.436  -1.273   0.922  1.00  0.00     0.031 A 
ENDROOT
BRANCH   1   7
ATOM      7  N   UNL     1       1.456  -0.591  -0.529  1.00  0.00    -0.151 NA
ATOM      8  N   UNL     1       2.260  -0.471   0.451  1.00  0.00    -0.151 NA
BRANCH   8   9
ATOM      9  C   UNL     1       3.626  -0.076   0.274  1.00  0.00     0.087 A 
ATOM     10  C   UNL     1       5.797   0.425   1.278  1.00  0.00     0.103 A 
ATOM     11  C   UNL     1       4.449   0.038   1.400  1.00  0.00     0.049 A 
ATOM     12  C   UNL     1       6.315   0.699  -0.010  1.00  0.00     0.130 A 
ATOM     13  C   UNL     1       5.486   0.585  -1.135  1.00  0.00     0.049 A 
ATOM     14  C   UNL     1       4.153   0.200  -0.997  1.00  0.00     0.034 A 
BRANCH  10  15
ATOM     15  C   UNL     1       6.634   0.533   2.500  1.00  0.00     0.339 C 
ATOM     16  O   UNL     1       7.840   0.894   2.431  1.00  0.00    -0.246 OA
BRANCH  15  17
ATOM     17  O   UNL     1       6.090   0.236   3.748  1.00  0.00    -0.478 OA
ATOM     18  H   UNL     1       6.648   0.310   4.590  1.00  0.00     0.297 HD
ENDBRANCH  15  17
ENDBRANCH  10  15
BRANCH  12  19
ATOM     19  O   UNL     1       7.645   1.084  -0.178  1.00  0.00    -0.507 OA
ATOM     20  H   UNL     1       8.031   1.285  -1.093  1.00  0.00     0.293 HD
ENDBRANCH  12  19
ENDBRANCH   8   9
ENDBRANCH   1   7
BRANCH   4  21
ATOM     21  S   UNL     1      -4.290  -2.212   0.100  1.00  0.00     0.263 S 
ATOM     22  O   UNL     1      -4.781  -1.937   1.494  1.00  0.00    -0.201 OA
ATOM     23  O   UNL     1      -4.420  -3.682  -0.183  1.00  0.00    -0.201 OA
BRANCH  21  24
ATOM     24  N   UNL     1      -5.265  -1.324  -1.030  1.00  0.00    -0.263 N 
ATOM     25  H   UNL     1      -5.807  -1.876  -1.732  1.00  0.00     0.182 HD
BRANCH  24  26
ATOM     26  C   UNL     1      -5.309   0.109  -1.106  1.00  0.00     0.139 A 
ATOM     27  N   UNL     1      -6.000   0.691  -2.126  1.00  0.00    -0.239 NA
ATOM     28  C   UNL     1      -4.664   0.929  -0.161  1.00  0.00     0.048 A 
ATOM     29  C   UNL     1      -6.083   2.041  -2.267  1.00  0.00     0.113 A 
ATOM     30  C   UNL     1      -4.738   2.317  -0.291  1.00  0.00     0.005 A 
ATOM     31  C   UNL     1      -5.450   2.880  -1.350  1.00  0.00     0.020 A 
ENDBRANCH  24  26
ENDBRANCH  21  24
ENDBRANCH   4  21
TORSDOF 8
