REMARK SMILES C[C@]12CC[C@@H]3c4ccc(O)cc4CC[C@H]3[C@@H]1CC[C@@H]2O
REMARK SMILES IDX 16 1 17 2 18 3 19 4 2 5 1 6 3 7 4 8 5 9 6 10 12 11 13 12
REMARK SMILES IDX 14 13 15 14 11 15 9 16 8 17 7 18 20 19 10 21
REMARK H PARENT 20 20 10 22
REMARK Flexibility Score: inf
ROOT
ATOM      1  C   UNL     1      -1.524  -0.460   0.597  1.00  0.00     0.001 C 
ATOM      2  C   UNL     1      -2.403  -1.697   0.731  1.00  0.00     0.007 C 
ATOM      3  C   UNL     1      -3.832  -1.161   0.524  1.00  0.00     0.032 C 
ATOM      4  C   UNL     1      -3.692   0.308   0.062  1.00  0.00     0.120 C 
ATOM      5  C   UNL     1      -2.239   0.413  -0.443  1.00  0.00    -0.003 C 
ATOM      6  C   UNL     1      -2.152  -0.133  -1.905  1.00  0.00     0.014 C 
ATOM      7  C   UNL     1      -1.630   1.829  -0.373  1.00  0.00     0.010 C 
ATOM      8  C   UNL     1      -0.096   1.800  -0.595  1.00  0.00     0.009 C 
ATOM      9  C   UNL     1       0.643   0.783   0.331  1.00  0.00     0.023 C 
ATOM     10  C   UNL     1       2.146   0.670   0.068  1.00  0.00    -0.041 A 
ATOM     11  C   UNL     1       2.841  -0.527   0.396  1.00  0.00    -0.041 A 
ATOM     12  C   UNL     1       2.126  -1.782   0.849  1.00  0.00     0.036 C 
ATOM     13  C   UNL     1       0.681  -1.539   1.291  1.00  0.00     0.009 C 
ATOM     14  C   UNL     1      -0.025  -0.624   0.283  1.00  0.00     0.000 C 
ATOM     15  C   UNL     1       4.233  -0.596   0.220  1.00  0.00     0.050 A 
ATOM     16  C   UNL     1       4.952   0.515  -0.228  1.00  0.00     0.115 A 
ATOM     17  C   UNL     1       4.283   1.705  -0.505  1.00  0.00     0.046 A 
ATOM     18  C   UNL     1       2.899   1.790  -0.347  1.00  0.00     0.008 A 
ENDROOT
BRANCH   4  19
ATOM     19  O   UNL     1      -4.630   0.630  -0.933  1.00  0.00    -0.393 OA
ATOM     20  H   UNL     1      -5.515   0.663  -0.485  1.00  0.00     0.210 HD
ENDBRANCH   4  19
BRANCH  16  21
ATOM     21  O   UNL     1       6.333   0.447  -0.398  1.00  0.00    -0.508 OA
ATOM     22  H   UNL     1       6.850  -0.403  -0.204  1.00  0.00     0.293 HD
ENDBRANCH  16  21
TORSDOF 2
