REMARK SMILES COC(=O)CCc1ccc(OCC(O)CNC(C)C)cc1
REMARK SMILES IDX 11 1 10 2 7 3 8 4 21 5 9 6 20 7 6 8 5 9 3 10 4 11 2 12 1 13
REMARK SMILES IDX 12 14 13 15 14 16 15 18 16 19 17 21 18 22 19 23
REMARK H PARENT 14 17 16 20
REMARK Flexibility Score: inf
ROOT
ATOM      1  O   UNL     1      -1.138   0.780   0.842  1.00  0.00    -0.491 OA
ENDROOT
BRANCH   1   2
ATOM      2  C   UNL     1       0.211   0.739   0.452  1.00  0.00     0.119 A 
ATOM      3  C   UNL     1       2.924   0.789  -0.317  1.00  0.00    -0.047 A 
ATOM      4  C   UNL     1       2.269   1.973   0.055  1.00  0.00     0.007 A 
ATOM      5  C   UNL     1       2.222  -0.425  -0.279  1.00  0.00     0.007 A 
ATOM      6  C   UNL     1       0.924   1.944   0.433  1.00  0.00     0.047 A 
ATOM      7  C   UNL     1       0.876  -0.453   0.100  1.00  0.00     0.047 A 
BRANCH   3   8
ATOM      8  C   UNL     1       4.381   0.813  -0.691  1.00  0.00     0.047 C 
BRANCH   8   9
ATOM      9  C   UNL     1       5.258   0.621   0.548  1.00  0.00     0.127 C 
BRANCH   9  10
ATOM     10  C   UNL     1       6.705   0.636   0.172  1.00  0.00     0.305 C 
ATOM     11  O   UNL     1       7.344   1.724   0.184  1.00  0.00    -0.252 OA
BRANCH  10  12
ATOM     12  O   UNL     1       7.324  -0.550  -0.231  1.00  0.00    -0.469 OA
ATOM     13  C   UNL     1       8.689  -0.606  -0.628  1.00  0.00     0.282 C 
ENDBRANCH  10  12
ENDBRANCH   9  10
ENDBRANCH   8   9
ENDBRANCH   3   8
ENDBRANCH   1   2
BRANCH   1  14
ATOM     14  C   UNL     1      -2.085  -0.286   0.733  1.00  0.00     0.262 C 
BRANCH  14  15
ATOM     15  C   UNL     1      -2.726  -0.308  -0.669  1.00  0.00     0.165 C 
BRANCH  15  16
ATOM     16  O   UNL     1      -1.737  -0.405  -1.663  1.00  0.00    -0.388 OA
ATOM     17  H   UNL     1      -1.322  -1.304  -1.590  1.00  0.00     0.211 HD
ENDBRANCH  15  16
BRANCH  15  18
ATOM     18  C   UNL     1      -3.756  -1.457  -0.842  1.00  0.00     0.116 C 
BRANCH  18  19
ATOM     19  N   UNL     1      -4.877  -1.442   0.119  1.00  0.00    -0.312 NA
ATOM     20  H   UNL     1      -4.502  -1.625   1.079  1.00  0.00     0.123 HD
BRANCH  19  21
ATOM     21  C   UNL     1      -5.696  -0.212   0.129  1.00  0.00     0.047 C 
ATOM     22  C   UNL     1      -6.338   0.054  -1.242  1.00  0.00     0.024 C 
ATOM     23  C   UNL     1      -6.797  -0.352   1.187  1.00  0.00     0.024 C 
ENDBRANCH  19  21
ENDBRANCH  18  19
ENDBRANCH  15  18
ENDBRANCH  14  15
ENDBRANCH   1  14
TORSDOF 11
