REMARK SMILES C[N+](C)(C)CCOC(N)=O
REMARK SMILES IDX 6 1 5 2 2 3 1 4 3 5 4 6 7 7 8 8 9 9 10 10
REMARK H PARENT 9 11 9 12
REMARK Flexibility Score: inf
ROOT
ATOM      1  C   UNL     1       0.749   0.604   0.890  1.00  0.00     0.296 C 
ENDROOT
BRANCH   1   2
ATOM      2  C   UNL     1       0.032  -0.459   0.029  1.00  0.00     0.305 C 
BRANCH   2   3
ATOM      3  N   UNL     1      -1.372  -0.124  -0.361  1.00  0.00    -0.328 N 
ATOM      4  C   UNL     1      -1.906  -1.253  -1.162  1.00  0.00     0.334 C 
ATOM      5  C   UNL     1      -2.237   0.050   0.832  1.00  0.00     0.334 C 
ATOM      6  C   UNL     1      -1.421   1.102  -1.194  1.00  0.00     0.334 C 
ENDBRANCH   2   3
ENDBRANCH   1   2
BRANCH   1   7
ATOM      7  O   UNL     1       2.072   0.171   1.203  1.00  0.00    -0.444 OA
BRANCH   7   8
ATOM      8  C   UNL     1       3.134   0.217   0.294  1.00  0.00     0.404 C 
ATOM      9  N   UNL     1       4.411  -0.282   0.681  1.00  0.00    -0.335 N 
ATOM     10  O   UNL     1       2.976   0.700  -0.860  1.00  0.00    -0.225 OA
ATOM     11  H   UNL     1       4.551  -0.681   1.635  1.00  0.00     0.163 HD
ATOM     12  H   UNL     1       5.216  -0.253   0.016  1.00  0.00     0.163 HD
ENDBRANCH   7   8
ENDBRANCH   1   7
TORSDOF 4
