REMARK SMILES Cc1cc2c(s1)Nc1ccccc1N=C2N1CCN(C)CC1
REMARK SMILES IDX 20 1 19 2 18 3 17 4 16 5 22 6 21 7 15 8 14 9 13 10 12 11
REMARK SMILES IDX 11 12 10 13 9 14 8 15 7 16 5 17 4 18 3 19 2 20 1 21 6 22
REMARK H PARENT 7 23
REMARK Flexibility Score: inf
ROOT
ATOM      1  C   UNL     1       5.132   0.469  -0.411  1.00  0.00     0.105 C 
ATOM      2  N   UNL     1       3.681   0.282  -0.258  1.00  0.00    -0.303 NA
ATOM      3  C   UNL     1       3.308   0.285   1.165  1.00  0.00     0.105 C 
ATOM      4  C   UNL     1       1.789   0.414   1.273  1.00  0.00     0.133 C 
ATOM      5  N   UNL     1       1.117  -0.398   0.248  1.00  0.00    -0.353 N 
ATOM      6  C   UNL     1       1.858  -1.454  -0.454  1.00  0.00     0.133 C 
ATOM      7  C   UNL     1       3.250  -0.970  -0.919  1.00  0.00     0.105 C 
ATOM      8  C   UNL     1      -0.319  -0.378   0.181  1.00  0.00     0.139 C 
ATOM      9  N   UNL     1      -0.955  -1.509   0.296  1.00  0.00    -0.229 NA
ATOM     10  C   UNL     1      -2.359  -1.816   0.267  1.00  0.00     0.089 A 
ATOM     11  C   UNL     1      -2.707  -3.121  -0.115  1.00  0.00     0.030 A 
ATOM     12  C   UNL     1      -4.032  -3.555  -0.068  1.00  0.00     0.002 A 
ATOM     13  C   UNL     1      -5.030  -2.697   0.386  1.00  0.00     0.002 A 
ATOM     14  C   UNL     1      -4.703  -1.402   0.790  1.00  0.00     0.028 A 
ATOM     15  C   UNL     1      -3.376  -0.941   0.730  1.00  0.00     0.065 A 
ATOM     16  N   UNL     1      -3.109   0.400   1.154  1.00  0.00    -0.345 N 
ATOM     17  C   UNL     1      -2.245   1.248   0.408  1.00  0.00     0.104 A 
ATOM     18  C   UNL     1      -1.001   0.902  -0.089  1.00  0.00     0.052 A 
ATOM     19  C   UNL     1      -0.385   1.965  -0.773  1.00  0.00     0.029 A 
ATOM     20  C   UNL     1      -1.155   3.122  -0.803  1.00  0.00     0.004 A 
ATOM     21  C   UNL     1      -0.727   4.434  -1.369  1.00  0.00     0.056 C 
ATOM     22  S   UNL     1      -2.581   2.856   0.047  1.00  0.00    -0.123 S 
ATOM     23  H   UNL     1      -3.819   0.873   1.757  1.00  0.00     0.167 HD
ENDROOT
TORSDOF 0
