REMARK SMILES CCC(C)C1(CC)C(=O)NC(=O)NC1=O
REMARK SMILES IDX 5 1 8 2 9 3 10 4 11 5 12 6 13 7 14 8 15 9 3 12 4 13 2 14
REMARK SMILES IDX 1 15 6 16 7 17
REMARK H PARENT 10 10 13 11
REMARK Flexibility Score: inf
ROOT
ATOM      1  C   UNL     1       0.375   0.382   0.063  1.00  0.00     0.131 C 
ATOM      2  C   UNL     1       1.321   0.389   1.268  1.00  0.00     0.243 C 
ATOM      3  O   UNL     1       1.075   1.153   2.241  1.00  0.00    -0.273 OA
ATOM      4  N   UNL     1       2.449  -0.486   1.354  1.00  0.00    -0.277 N 
ATOM      5  C   UNL     1       2.780  -1.375   0.293  1.00  0.00     0.328 C 
ATOM      6  O   UNL     1       3.743  -2.177   0.420  1.00  0.00    -0.248 OA
ATOM      7  N   UNL     1       2.032  -1.348  -0.917  1.00  0.00    -0.277 N 
ATOM      8  C   UNL     1       0.944  -0.437  -1.098  1.00  0.00     0.243 C 
ATOM      9  O   UNL     1       0.430  -0.336  -2.245  1.00  0.00    -0.273 OA
ATOM     10  H   UNL     1       3.035  -0.483   2.219  1.00  0.00     0.174 HD
ATOM     11  H   UNL     1       2.318  -1.968  -1.708  1.00  0.00     0.174 HD
ENDROOT
BRANCH   1  12
ATOM     12  C   UNL     1      -1.000  -0.239   0.541  1.00  0.00     0.011 C 
ATOM     13  C   UNL     1      -0.833  -1.705   1.009  1.00  0.00     0.009 C 
BRANCH  12  14
ATOM     14  C   UNL     1      -2.146  -0.137  -0.508  1.00  0.00     0.001 C 
ATOM     15  C   UNL     1      -3.507  -0.583   0.036  1.00  0.00     0.004 C 
ENDBRANCH  12  14
ENDBRANCH   1  12
BRANCH   1  16
ATOM     16  C   UNL     1       0.195   1.864  -0.407  1.00  0.00     0.024 C 
ATOM     17  C   UNL     1       1.513   2.589  -0.717  1.00  0.00     0.005 C 
ENDBRANCH   1  16
TORSDOF 3
