REMARK SMILES CN(C)CCC=C1c2ccccc2C=Cc2ccccc21
REMARK SMILES IDX 5 1 4 2 2 3 1 4 3 5 6 6 7 7 8 8 9 9 13 10 10 11 12 12 11 13
REMARK SMILES IDX 14 14 21 16 16 17 20 18 17 19 19 20 18 21 15 22
REMARK H PARENT
REMARK Flexibility Score: 40.00
ROOT
ATOM      1  C   UNL     1       1.509  -0.896  -0.759  1.00  0.00     0.043 C 
ENDROOT
BRANCH   1   2
ATOM      2  C   UNL     1       2.890  -0.432  -1.245  1.00  0.00     0.088 C 
BRANCH   2   3
ATOM      3  N   UNL     1       3.649   0.228  -0.159  1.00  0.00    -0.309 NA
ATOM      4  C   UNL     1       4.639   1.160  -0.723  1.00  0.00     0.104 C 
ATOM      5  C   UNL     1       4.337  -0.764   0.687  1.00  0.00     0.104 C 
ENDBRANCH   2   3
ENDBRANCH   1   2
BRANCH   1   6
ATOM      6  C   UNL     1       0.668   0.259  -0.273  1.00  0.00    -0.016 C 
ATOM      7  C   UNL     1      -0.632   0.140   0.056  1.00  0.00    -0.014 C 
BRANCH   7   8
ATOM      8  C   UNL     1      -1.409   1.335   0.417  1.00  0.00    -0.011 A 
ATOM      9  C   UNL     1      -0.995   2.122   1.506  1.00  0.00     0.009 A 
ATOM     10  C   UNL     1      -2.560   1.702  -0.316  1.00  0.00    -0.018 A 
ATOM     11  C   UNL     1      -1.712   3.264   1.865  1.00  0.00     0.001 A 
ATOM     12  C   UNL     1      -3.257   2.867   0.049  1.00  0.00     0.009 A 
ATOM     13  C   UNL     1      -2.841   3.637   1.137  1.00  0.00     0.001 A 
BRANCH  10  14
ATOM     14  C   UNL     1      -3.006   0.982  -1.535  1.00  0.00     0.009 CG0
ATOM     15  G   UNL     1      -2.950  -0.342  -1.747  1.00  0.00     0.000 G0
ENDBRANCH  10  14
ENDBRANCH   7   8
BRANCH   7  16
ATOM     16  C   UNL     1      -1.343  -1.151   0.052  1.00  0.00    -0.011 A 
ATOM     17  C   UNL     1      -2.455  -1.363  -0.793  1.00  0.00    -0.018 A 
ATOM     18  C   UNL     1      -0.938  -2.166   0.936  1.00  0.00     0.009 A 
ATOM     19  C   UNL     1      -3.084  -2.620  -0.790  1.00  0.00     0.009 A 
ATOM     20  C   UNL     1      -1.590  -3.400   0.942  1.00  0.00     0.001 A 
ATOM     21  C   UNL     1      -2.656  -3.630   0.073  1.00  0.00     0.001 A 
BRANCH  17  22
ATOM     22  C   UNL     1      -2.950  -0.342  -1.747  1.00  0.00     0.009 CG0
ATOM     23  G   UNL     1      -3.006   0.982  -1.535  1.00  0.00     0.000 G0
ENDBRANCH  17  22
ENDBRANCH   7  16
ENDBRANCH   1   6
TORSDOF 3
