REMARK SMILES C[C@@H](CN1CC(=O)NC(=O)C1)N1CC(=O)NC(=O)C1
REMARK SMILES IDX 1 1 2 2 3 3 4 4 5 5 11 6 6 7 9 8 7 9 8 10 10 11 12 13 13 14
REMARK SMILES IDX 19 15 14 16 17 17 15 18 16 19 18 20
REMARK H PARENT 8 12 16 21
REMARK Flexibility Score: inf
ROOT
ATOM      1  C   UNL     1       0.801   0.967   2.232  1.00  0.00     0.026 C 
ATOM      2  C   UNL     1       0.813  -0.087   1.099  1.00  0.00     0.068 C 
ENDROOT
BRANCH   2   3
ATOM      3  C   UNL     1      -0.518  -0.901   1.112  1.00  0.00     0.104 C 
BRANCH   3   4
ATOM      4  N   UNL     1      -1.459  -0.504   0.036  1.00  0.00    -0.284 NA
ATOM      5  C   UNL     1      -2.155   0.760   0.366  1.00  0.00     0.185 C 
ATOM      6  C   UNL     1      -2.433  -1.594  -0.202  1.00  0.00     0.185 C 
ATOM      7  C   UNL     1      -3.108   1.146  -0.729  1.00  0.00     0.240 C 
ATOM      8  C   UNL     1      -3.361  -1.233  -1.324  1.00  0.00     0.240 C 
ATOM      9  O   UNL     1      -3.422   2.354  -0.898  1.00  0.00    -0.273 OA
ATOM     10  N   UNL     1      -3.699   0.135  -1.546  1.00  0.00    -0.294 N 
ATOM     11  O   UNL     1      -3.880  -2.135  -2.034  1.00  0.00    -0.273 OA
ATOM     12  H   UNL     1      -4.369   0.395  -2.304  1.00  0.00     0.172 HD
ENDBRANCH   3   4
ENDBRANCH   2   3
BRANCH   2  13
ATOM     13  N   UNL     1       1.087   0.483  -0.258  1.00  0.00    -0.281 NA
ATOM     14  C   UNL     1       2.109   1.559  -0.302  1.00  0.00     0.186 C 
ATOM     15  C   UNL     1       1.434  -0.575  -1.243  1.00  0.00     0.186 C 
ATOM     16  C   UNL     1       3.478   1.024   0.007  1.00  0.00     0.240 C 
ATOM     17  C   UNL     1       2.821  -1.121  -1.019  1.00  0.00     0.240 C 
ATOM     18  O   UNL     1       4.334   1.752   0.575  1.00  0.00    -0.273 OA
ATOM     19  N   UNL     1       3.818  -0.300  -0.405  1.00  0.00    -0.294 N 
ATOM     20  O   UNL     1       3.113  -2.283  -1.406  1.00  0.00    -0.273 OA
ATOM     21  H   UNL     1       4.780  -0.673  -0.240  1.00  0.00     0.172 HD
ENDBRANCH   2  13
TORSDOF 3
