REMARK SMILES O=C(c1ccccc1)c1ccc2n1CCC2C(=O)O
REMARK SMILES IDX 16 1 15 2 14 3 13 4 12 5 11 6 10 7 9 8 17 9 18 10 19 11 2 13
REMARK SMILES IDX 1 14 3 15 4 16 8 17 5 18 7 19 6 20
REMARK H PARENT 19 12
REMARK Flexibility Score: inf
ROOT
ATOM      1  C   UNL     1       3.469  -0.314   0.402  1.00  0.00     0.147 C 
ATOM      2  C   UNL     1       3.295   0.920   1.341  1.00  0.00     0.043 C 
ATOM      3  C   UNL     1       1.798   1.326   1.284  1.00  0.00     0.124 C 
ATOM      4  N   UNL     1       1.216   0.326   0.422  1.00  0.00    -0.341 N 
ATOM      5  C   UNL     1       2.080  -0.543  -0.046  1.00  0.00     0.032 A 
ATOM      6  C   UNL     1       1.463  -1.476  -0.851  1.00  0.00     0.025 A 
ATOM      7  C   UNL     1       0.115  -1.113  -0.851  1.00  0.00     0.032 A 
ATOM      8  C   UNL     1      -0.008   0.013  -0.036  1.00  0.00     0.090 A 
ENDROOT
BRANCH   1   9
ATOM      9  C   UNL     1       4.365  -0.016  -0.765  1.00  0.00     0.312 C 
ATOM     10  O   UNL     1       5.427  -0.675  -0.925  1.00  0.00    -0.252 OA
BRANCH   9  11
ATOM     11  O   UNL     1       4.033   0.993  -1.665  1.00  0.00    -0.481 OA
ATOM     12  H   UNL     1       4.632   1.204  -2.453  1.00  0.00     0.296 HD
ENDBRANCH   9  11
ENDBRANCH   1   9
BRANCH   8  13
ATOM     13  C   UNL     1      -1.237   0.784   0.245  1.00  0.00     0.209 C 
ATOM     14  O   UNL     1      -1.129   1.972   0.652  1.00  0.00    -0.287 OA
BRANCH  13  15
ATOM     15  C   UNL     1      -2.589   0.214   0.047  1.00  0.00     0.024 A 
ATOM     16  C   UNL     1      -3.637   1.036  -0.403  1.00  0.00     0.012 A 
ATOM     17  C   UNL     1      -2.860  -1.134   0.348  1.00  0.00     0.012 A 
ATOM     18  C   UNL     1      -4.922   0.513  -0.577  1.00  0.00     0.001 A 
ATOM     19  C   UNL     1      -4.146  -1.653   0.173  1.00  0.00     0.001 A 
ATOM     20  C   UNL     1      -5.176  -0.831  -0.292  1.00  0.00     0.000 A 
ENDBRANCH  13  15
ENDBRANCH   8  13
TORSDOF 4
