REMARK SMILES CCOC(=O)n1ccn(C)c1=S
REMARK SMILES IDX 4 1 5 2 3 3 2 4 1 5 6 6 7 7 11 8 8 9 9 10 12 11 10 12
REMARK H PARENT
REMARK Flexibility Score: inf
ROOT
ATOM      1  C   UNL     1      -0.859  -1.025   0.188  1.00  0.00     0.420 C 
ATOM      2  O   UNL     1      -1.321  -2.174   0.432  1.00  0.00    -0.223 OA
ENDROOT
BRANCH   1   3
ATOM      3  O   UNL     1      -1.719   0.077   0.148  1.00  0.00    -0.449 OA
BRANCH   3   4
ATOM      4  C   UNL     1      -3.120  -0.028   0.373  1.00  0.00     0.231 C 
ATOM      5  C   UNL     1      -3.758   1.347   0.259  1.00  0.00     0.049 C 
ENDBRANCH   3   4
ENDBRANCH   1   3
BRANCH   1   6
ATOM      6  N   UNL     1       0.550  -0.859  -0.047  1.00  0.00    -0.227 N 
ATOM      7  C   UNL     1       1.467  -1.851  -0.033  1.00  0.00     0.118 A 
ATOM      8  C   UNL     1       1.250   0.269  -0.323  1.00  0.00     0.189 A 
ATOM      9  C   UNL     1       2.709  -1.313  -0.299  1.00  0.00     0.106 A 
ATOM     10  N   UNL     1       2.568   0.014  -0.480  1.00  0.00    -0.326 N 
ATOM     11  S   UNL     1       0.598   1.773  -0.455  1.00  0.00    -0.039 S 
ATOM     12  C   UNL     1       3.635   0.964  -0.784  1.00  0.00     0.152 C 
ENDBRANCH   1   6
TORSDOF 3
