REMARK SMILES COc1ccc(C(CN(C)C)C2(O)CCCCC2)cc1
REMARK SMILES IDX 7 1 6 2 3 3 4 4 20 5 5 6 19 7 2 8 1 9 8 10 9 11 10 12 11 13
REMARK SMILES IDX 12 14 14 15 18 16 15 17 17 18 16 19 13 20
REMARK H PARENT 13 21
REMARK Flexibility Score: inf
ROOT
ATOM      1  C   UNL     1      -0.582   0.389  -0.270  1.00  0.00     0.065 C 
ENDROOT
BRANCH   1   2
ATOM      2  C   UNL     1       0.893   0.065  -0.498  1.00  0.00    -0.040 A 
ATOM      3  C   UNL     1       3.614  -0.532  -0.978  1.00  0.00     0.118 A 
ATOM      4  C   UNL     1       3.153  -0.326   0.327  1.00  0.00     0.047 A 
ATOM      5  C   UNL     1       2.704  -0.449  -2.048  1.00  0.00     0.047 A 
ATOM      6  C   UNL     1       1.808  -0.030   0.569  1.00  0.00     0.008 A 
ATOM      7  C   UNL     1       1.359  -0.157  -1.807  1.00  0.00     0.008 A 
BRANCH   3   8
ATOM      8  O   UNL     1       4.975  -0.815  -1.168  1.00  0.00    -0.497 OA
ATOM      9  C   UNL     1       5.585  -1.005  -2.440  1.00  0.00     0.278 C 
ENDBRANCH   3   8
ENDBRANCH   1   2
BRANCH   1  10
ATOM     10  C   UNL     1      -0.759   1.605   0.681  1.00  0.00     0.095 C 
BRANCH  10  11
ATOM     11  N   UNL     1       0.056   2.755   0.219  1.00  0.00    -0.309 NA
ATOM     12  C   UNL     1       0.454   3.595   1.359  1.00  0.00     0.105 C 
ATOM     13  C   UNL     1      -0.680   3.573  -0.763  1.00  0.00     0.105 C 
ENDBRANCH  10  11
ENDBRANCH   1  10
BRANCH   1  14
ATOM     14  C   UNL     1      -1.420  -0.894   0.103  1.00  0.00     0.073 C 
ATOM     15  C   UNL     1      -1.130  -1.406   1.541  1.00  0.00     0.036 C 
ATOM     16  C   UNL     1      -2.948  -0.608  -0.018  1.00  0.00     0.036 C 
ATOM     17  C   UNL     1      -1.972  -2.645   1.887  1.00  0.00     0.003 C 
ATOM     18  C   UNL     1      -3.787  -1.849   0.316  1.00  0.00     0.003 C 
ATOM     19  C   UNL     1      -3.470  -2.360   1.727  1.00  0.00     0.000 C 
BRANCH  14  20
ATOM     20  O   UNL     1      -1.079  -1.930  -0.794  1.00  0.00    -0.389 OA
ATOM     21  H   UNL     1      -1.312  -1.632  -1.715  1.00  0.00     0.211 HD
ENDBRANCH  14  20
ENDBRANCH   1  14
TORSDOF 6
