REMARK SMILES C[C@]12CC[C@H]3[C@@H](CCC4=CC(=O)CC[C@@H]43)[C@@H]1CC[C@@H]2OC(=O)CCc1ccccc1
REMARK SMILES IDX 23 1 21 2 22 3 20 4 19 5 16 6 17 7 2 8 6 9 18 10 1 11 3 12
REMARK SMILES IDX 5 13 7 14 4 15 15 16 8 17 14 18 9 19 13 20 10 21 11 22 12 23
REMARK SMILES IDX 24 24 25 25 26 26 30 27 27 28 29 29 28 30
REMARK H PARENT
REMARK Flexibility Score: inf
ROOT
ATOM      1  C   UNL     1       4.556   0.121  -1.126  1.00  0.00     0.127 C 
ENDROOT
BRANCH   1   2
ATOM      2  C   UNL     1       3.351  -0.761  -1.190  1.00  0.00     0.306 C 
ATOM      3  O   UNL     1       3.458  -1.937  -1.636  1.00  0.00    -0.252 OA
BRANCH   2   4
ATOM      4  O   UNL     1       2.121  -0.280  -0.732  1.00  0.00    -0.462 OA
BRANCH   4   5
ATOM      5  C   UNL     1       0.939  -1.080  -0.680  1.00  0.00     0.182 C 
ATOM      6  C   UNL     1      -1.243  -1.362   0.181  1.00  0.00     0.002 C 
ATOM      7  C   UNL     1      -0.367  -2.217   1.088  1.00  0.00     0.008 C 
ATOM      8  C   UNL     1      -0.311  -0.253  -0.321  1.00  0.00     0.008 C 
ATOM      9  C   UNL     1      -2.577  -0.812   0.722  1.00  0.00    -0.003 C 
ATOM     10  C   UNL     1       1.023  -2.153   0.431  1.00  0.00     0.046 C 
ATOM     11  C   UNL     1       0.058   0.810   0.764  1.00  0.00     0.015 C 
ATOM     12  C   UNL     1      -0.996   0.432  -1.522  1.00  0.00     0.011 C 
ATOM     13  C   UNL     1      -3.309  -0.061  -0.436  1.00  0.00    -0.000 C 
ATOM     14  C   UNL     1      -3.474  -1.949   1.241  1.00  0.00     0.008 C 
ATOM     15  C   UNL     1      -2.387   0.989  -1.132  1.00  0.00     0.005 C 
ATOM     16  C   UNL     1      -4.636   0.570   0.082  1.00  0.00     0.019 C 
ATOM     17  C   UNL     1      -4.781  -1.396   1.808  1.00  0.00     0.032 C 
ATOM     18  C   UNL     1      -5.440   1.211  -1.080  1.00  0.00     0.016 C 
ATOM     19  C   UNL     1      -5.469  -0.474   0.831  1.00  0.00    -0.063 C 
ATOM     20  C   UNL     1      -6.822   1.680  -0.624  1.00  0.00     0.081 C 
ATOM     21  C   UNL     1      -6.814  -0.445   0.814  1.00  0.00     0.046 C 
ATOM     22  C   UNL     1      -7.553   0.552   0.029  1.00  0.00     0.155 C 
ATOM     23  O   UNL     1      -8.810   0.487  -0.047  1.00  0.00    -0.295 OA
ENDBRANCH   4   5
ENDBRANCH   2   4
ENDBRANCH   1   2
BRANCH   1  24
ATOM     24  C   UNL     1       5.465  -0.291   0.035  1.00  0.00     0.047 C 
BRANCH  24  25
ATOM     25  C   UNL     1       6.682   0.593   0.094  1.00  0.00    -0.047 A 
ATOM     26  C   UNL     1       7.786   0.335  -0.738  1.00  0.00     0.004 A 
ATOM     27  C   UNL     1       6.702   1.719   0.935  1.00  0.00     0.004 A 
ATOM     28  C   UNL     1       8.900   1.179  -0.714  1.00  0.00     0.000 A 
ATOM     29  C   UNL     1       7.820   2.560   0.957  1.00  0.00     0.000 A 
ATOM     30  C   UNL     1       8.917   2.291   0.132  1.00  0.00     0.000 A 
ENDBRANCH  24  25
ENDBRANCH   1  24
TORSDOF 5
