REMARK SMILES O=S(=O)(O)O[C@@H]1[C@@H](OS(=O)(=O)O)[C@H](O[C@@H]2CO[C@@H](O)[C@H](OS(=O)(=O)O)[C@H]2OS(=O)(=O)O)OC[C@H]1O
REMARK SMILES IDX 14 1 13 2 34 3 33 4 6 5 32 6 7 7 35 8 5 10 2 11 1 12 3 13
REMARK SMILES IDX 4 14 8 16 9 17 10 18 11 19 12 20 15 22 16 23 26 24 17 25
REMARK SMILES IDX 20 26 18 27 27 28 28 29 29 30 30 31 31 32 21 34 22 35 23 36
REMARK SMILES IDX 24 37 25 38 19 40
REMARK H PARENT 35 9 4 15 12 21 31 33 25 39 19 41
REMARK Flexibility Score: inf
ROOT
ATOM      1  O   UNL     1       0.159   0.117  -0.339  1.00  0.00    -0.341 OA
ENDROOT
BRANCH   1   2
ATOM      2  C   UNL     1       1.196   0.783  -1.049  1.00  0.00     0.284 C 
ATOM      3  C   UNL     1       3.446  -0.988  -0.677  1.00  0.00     0.173 C 
ATOM      4  C   UNL     1       2.247  -1.242  -1.605  1.00  0.00     0.198 C 
ATOM      5  C   UNL     1       3.030  -0.065   0.484  1.00  0.00     0.208 C 
ATOM      6  O   UNL     1       1.697  -0.033  -2.100  1.00  0.00    -0.347 OA
ATOM      7  C   UNL     1       2.315   1.188  -0.069  1.00  0.00     0.231 C 
BRANCH   3   8
ATOM      8  O   UNL     1       4.493  -0.415  -1.416  1.00  0.00    -0.388 OA
ATOM      9  H   UNL     1       5.318  -0.519  -0.872  1.00  0.00     0.211 HD
ENDBRANCH   3   8
BRANCH   5  10
ATOM     10  O   UNL     1       2.152  -0.785   1.329  1.00  0.00    -0.239 OA
BRANCH  10  11
ATOM     11  S   UNL     1       2.475  -0.442   2.957  1.00  0.00     0.397 S 
ATOM     12  O   UNL     1       1.500  -1.197   3.814  1.00  0.00    -0.169 OA
ATOM     13  O   UNL     1       2.317   1.031   3.220  1.00  0.00    -0.169 OA
BRANCH  11  14
ATOM     14  O   UNL     1       4.038  -0.924   3.351  1.00  0.00    -0.264 OA
ATOM     15  H   UNL     1       4.129  -1.831   2.962  1.00  0.00     0.236 HD
ENDBRANCH  11  14
ENDBRANCH  10  11
ENDBRANCH   5  10
BRANCH   7  16
ATOM     16  O   UNL     1       3.248   1.998  -0.761  1.00  0.00    -0.237 OA
BRANCH  16  17
ATOM     17  S   UNL     1       3.608   3.392   0.140  1.00  0.00     0.397 S 
ATOM     18  O   UNL     1       2.371   4.236   0.291  1.00  0.00    -0.169 OA
ATOM     19  O   UNL     1       4.137   3.021   1.500  1.00  0.00    -0.169 OA
BRANCH  17  20
ATOM     20  O   UNL     1       4.776   4.282  -0.680  1.00  0.00    -0.264 OA
ATOM     21  H   UNL     1       5.535   3.656  -0.798  1.00  0.00     0.236 HD
ENDBRANCH  17  20
ENDBRANCH  16  17
ENDBRANCH   7  16
ENDBRANCH   1   2
BRANCH   1  22
ATOM     22  C   UNL     1      -1.129   0.556  -0.732  1.00  0.00     0.181 C 
ATOM     23  C   UNL     1      -1.519   1.827   0.050  1.00  0.00     0.198 C 
ATOM     24  C   UNL     1      -2.140  -0.555  -0.405  1.00  0.00     0.208 C 
ATOM     25  O   UNL     1      -2.826   2.247  -0.297  1.00  0.00    -0.347 OA
ATOM     26  C   UNL     1      -3.577  -0.046  -0.632  1.00  0.00     0.231 C 
ATOM     27  C   UNL     1      -3.777   1.282   0.126  1.00  0.00     0.280 C 
BRANCH  24  28
ATOM     28  O   UNL     1      -1.894  -1.661  -1.254  1.00  0.00    -0.239 OA
BRANCH  28  29
ATOM     29  S   UNL     1      -1.576  -3.049  -0.333  1.00  0.00     0.397 S 
ATOM     30  O   UNL     1      -2.796  -3.427   0.462  1.00  0.00    -0.169 OA
ATOM     31  O   UNL     1      -1.230  -4.181  -1.258  1.00  0.00    -0.169 OA
BRANCH  29  32
ATOM     32  O   UNL     1      -0.274  -2.779   0.702  1.00  0.00    -0.264 OA
ATOM     33  H   UNL     1      -0.670  -2.677   1.606  1.00  0.00     0.236 HD
ENDBRANCH  29  32
ENDBRANCH  28  29
ENDBRANCH  24  28
BRANCH  26  34
ATOM     34  O   UNL     1      -4.488  -0.999  -0.119  1.00  0.00    -0.237 OA
BRANCH  34  35
ATOM     35  S   UNL     1      -5.448  -1.631  -1.367  1.00  0.00     0.397 S 
ATOM     36  O   UNL     1      -6.312  -0.543  -1.944  1.00  0.00    -0.169 OA
ATOM     37  O   UNL     1      -6.326  -2.711  -0.801  1.00  0.00    -0.169 OA
BRANCH  35  38
ATOM     38  O   UNL     1      -4.473  -2.289  -2.570  1.00  0.00    -0.264 OA
ATOM     39  H   UNL     1      -5.100  -2.563  -3.287  1.00  0.00     0.236 HD
ENDBRANCH  35  38
ENDBRANCH  34  35
ENDBRANCH  26  34
BRANCH  27  40
ATOM     40  O   UNL     1      -5.066   1.767  -0.140  1.00  0.00    -0.366 OA
ATOM     41  H   UNL     1      -5.178   2.586   0.407  1.00  0.00     0.213 HD
ENDBRANCH  27  40
ENDBRANCH   1  22
TORSDOF 16
