REMARK SMILES CC[C@]1(O)C[C@@H]2CN(CCc3c([nH]c4ccccc34)[C@@](C(=O)OC)(c3cc4c(cc3OC)N(C)[C@H]3[C@@](O)(C(N)=O)[C@H](O)[C@]5(CC)C=CCN6CC[C@]43[C@@H]65)C2)C1
REMARK SMILES IDX 54 1 20 2 25 3 53 4 49 5 52 6 43 7 50 8 48 9 51 10 27 11
REMARK SMILES IDX 35 12 41 13 46 14 47 15 26 16 28 17 33 18 36 19 29 20 34 21
REMARK SMILES IDX 30 22 44 23 45 24 42 25 37 27 38 29 39 30 40 31 31 34 32 35
REMARK SMILES IDX 21 36 22 37 23 38 24 39 12 40 11 41 13 42 19 43 14 44 18 46
REMARK SMILES IDX 15 47 17 48 16 49 10 50 6 52 7 53 5 54 8 55 3 56 55 57 9 58
REMARK SMILES IDX 4 60 2 62 1 63
REMARK H PARENT 42 26 37 28 39 32 39 33 13 45 4 61
REMARK Flexibility Score: 90.00
ROOT
ATOM      1  C   UNL     1       2.569   0.262  -2.260  1.00  0.00     0.035 C 
ENDROOT
BRANCH   1   2
ATOM      2  C   UNL     1       1.645  -0.588  -1.269  1.00  0.00     0.137 C 
BRANCH   2   3
ATOM      3  C   UNL     1       0.136  -0.229  -1.450  1.00  0.00     0.018 A 
ATOM      4  C   UNL     1      -3.635  -1.013   1.065  1.00  0.00     0.082 C 
ATOM      5  N   UNL     1      -2.826  -1.461   2.237  1.00  0.00    -0.295 NA
ATOM      6  C   UNL     1      -3.052   0.378   0.672  1.00  0.00     0.039 C 
ATOM      7  C   UNL     1      -5.220  -1.136   1.258  1.00  0.00     0.034 C 
ATOM      8  C   UNL     1      -2.129  -0.291   2.815  1.00  0.00     0.086 C 
ATOM      9  C   UNL     1      -3.545  -2.223   3.280  1.00  0.00     0.112 C 
ATOM     10  C   UNL     1      -2.397   0.917   1.940  1.00  0.00     0.031 C 
ATOM     11  C   UNL     1      -2.037   0.195  -0.430  1.00  0.00    -0.014 A 
ATOM     12  C   UNL     1      -4.022   1.413  -0.003  1.00  0.00     0.138 C 
ATOM     13  C   UNL     1      -6.015  -0.090   0.388  1.00  0.00     0.169 C 
ATOM     14  C   UNL     1      -5.573  -0.977   2.734  1.00  0.00    -0.019 C 
ATOM     15  C   UNL     1      -4.795  -1.505   3.680  1.00  0.00    -0.015 C 
ATOM     16  C   UNL     1      -0.748  -0.338  -0.349  1.00  0.00     0.015 A 
ATOM     17  C   UNL     1      -2.546   0.628  -1.616  1.00  0.00     0.044 A 
ATOM     18  N   UNL     1      -3.847   1.192  -1.461  1.00  0.00    -0.367 N 
ATOM     19  C   UNL     1      -5.491   1.365   0.535  1.00  0.00     0.191 C 
ATOM     20  C   UNL     1      -1.776   0.581  -2.781  1.00  0.00     0.073 A 
ATOM     21  C   UNL     1      -4.549   1.905  -2.536  1.00  0.00     0.144 C 
ATOM     22  C   UNL     1      -0.440   0.122  -2.715  1.00  0.00     0.125 A 
BRANCH   7  23
ATOM     23  C   UNL     1      -5.657  -2.579   0.777  1.00  0.00     0.012 C 
ATOM     24  C   UNL     1      -6.981  -3.128   1.337  1.00  0.00     0.005 C 
ENDBRANCH   7  23
BRANCH  13  25
ATOM     25  O   UNL     1      -7.382  -0.126   0.741  1.00  0.00    -0.388 OA
ATOM     26  H   UNL     1      -7.890  -0.449  -0.054  1.00  0.00     0.211 HD
ENDBRANCH  13  25
BRANCH  19  27
ATOM     27  O   UNL     1      -5.516   1.702   1.905  1.00  0.00    -0.376 OA
ATOM     28  H   UNL     1      -5.137   2.609   2.030  1.00  0.00     0.212 HD
ENDBRANCH  19  27
BRANCH  19  29
ATOM     29  C   UNL     1      -6.380   2.381  -0.193  1.00  0.00     0.254 C 
ATOM     30  N   UNL     1      -6.026   3.768  -0.222  1.00  0.00    -0.367 N 
ATOM     31  O   UNL     1      -7.429   2.020  -0.786  1.00  0.00    -0.272 OA
ATOM     32  H   UNL     1      -6.543   4.406  -0.861  1.00  0.00     0.159 HD
ATOM     33  H   UNL     1      -5.178   4.135   0.265  1.00  0.00     0.159 HD
ENDBRANCH  19  29
BRANCH  22  34
ATOM     34  O   UNL     1       0.311  -0.021  -3.888  1.00  0.00    -0.496 OA
ATOM     35  C   UNL     1      -0.147   0.280  -5.200  1.00  0.00     0.278 C 
ENDBRANCH  22  34
ENDBRANCH   2   3
BRANCH   2  36
ATOM     36  C   UNL     1       1.696  -2.074  -1.559  1.00  0.00     0.322 C 
ATOM     37  O   UNL     1       1.827  -2.483  -2.744  1.00  0.00    -0.251 OA
BRANCH  36  38
ATOM     38  O   UNL     1       1.459  -2.990  -0.529  1.00  0.00    -0.468 OA
ATOM     39  C   UNL     1       1.531  -4.400  -0.726  1.00  0.00     0.282 C 
ENDBRANCH  36  38
ENDBRANCH   2  36
BRANCH   2  40
ATOM     40  C   UNL     1       2.107  -0.301   0.195  1.00  0.00     0.041 A 
ATOM     41  C   UNL     1       3.171  -0.894   0.952  1.00  0.00    -0.017 A 
ATOM     42  N   UNL     1       1.612   0.756   0.896  1.00  0.00    -0.357 N 
ATOM     43  C   UNL     1       3.191  -0.188   2.149  1.00  0.00     0.003 A 
ATOM     44  C   UNL     1       2.236   0.785   2.079  1.00  0.00     0.046 A 
ATOM     45  H   UNL     1       0.905   1.451   0.570  1.00  0.00     0.166 HD
ATOM     46  C   UNL     1       4.027  -0.306   3.260  1.00  0.00     0.010 A 
ATOM     47  C   UNL     1       2.013   1.680   3.127  1.00  0.00     0.026 A 
ATOM     48  C   UNL     1       3.830   0.580   4.337  1.00  0.00     0.001 A 
ATOM     49  C   UNL     1       2.818   1.562   4.271  1.00  0.00     0.002 A 
BRANCH  41  50
ATOM     50  C   UNL     1       4.261  -1.899   0.572  1.00  0.00     0.053 CG0
ATOM     51  G   UNL     1       5.629  -1.226   0.204  1.00  0.00     0.000 G0
ENDBRANCH  41  50
ENDBRANCH   2  40
ENDBRANCH   1   2
BRANCH   1  52
ATOM     52  C   UNL     1       4.058   0.319  -1.882  1.00  0.00     0.008 C 
ATOM     53  C   UNL     1       4.774  -0.997  -2.142  1.00  0.00     0.088 C 
ATOM     54  C   UNL     1       4.911   1.409  -2.528  1.00  0.00     0.041 C 
ATOM     55  N   UNL     1       5.928  -1.076  -1.251  1.00  0.00    -0.300 NA
ATOM     56  C   UNL     1       6.334   1.449  -1.853  1.00  0.00     0.077 C 
ATOM     57  C   UNL     1       6.916  -0.005  -1.577  1.00  0.00     0.119 C 
BRANCH  55  58
ATOM     58  C   UNL     1       5.629  -1.226   0.204  1.00  0.00     0.089 CG0
ATOM     59  G   UNL     1       4.261  -1.899   0.572  1.00  0.00     0.000 G0
ENDBRANCH  55  58
BRANCH  56  60
ATOM     60  O   UNL     1       7.222   2.084  -2.751  1.00  0.00    -0.389 OA
ATOM     61  H   UNL     1       6.857   2.981  -2.970  1.00  0.00     0.211 HD
ENDBRANCH  56  60
BRANCH  56  62
ATOM     62  C   UNL     1       6.264   2.312  -0.546  1.00  0.00     0.033 C 
ATOM     63  C   UNL     1       7.626   2.564   0.116  1.00  0.00     0.007 C 
ENDBRANCH  56  62
ENDBRANCH   1  52
TORSDOF 10
