REMARK SMILES C[C@@H](NCCc1ccc(O)cc1)[C@@H](O)c1ccc(O)cc1
REMARK SMILES IDX 3 1 2 3 1 4 13 5 14 6 15 8 16 9 21 10 17 11 20 12 18 13
REMARK SMILES IDX 19 14 4 16 5 17 6 18 7 19 12 20 8 21 11 22 9 23 10 24
REMARK H PARENT 3 2 14 7 19 15 10 25
REMARK Flexibility Score: inf
ROOT
ATOM      1  N   UNL     1       0.267  -0.052  -0.806  1.00  0.00    -0.311 NA
ATOM      2  H   UNL     1       0.953  -0.826  -0.662  1.00  0.00     0.123 HD
ENDROOT
BRANCH   1   3
ATOM      3  C   UNL     1       0.806   1.242  -0.334  1.00  0.00     0.083 C 
ATOM      4  C   UNL     1       1.465   1.958  -1.516  1.00  0.00     0.027 C 
BRANCH   3   5
ATOM      5  C   UNL     1       1.772   1.111   0.883  1.00  0.00     0.161 C 
BRANCH   5   6
ATOM      6  O   UNL     1       1.093   0.531   1.968  1.00  0.00    -0.387 OA
ATOM      7  H   UNL     1       1.633   0.716   2.780  1.00  0.00     0.211 HD
ENDBRANCH   5   6
BRANCH   5   8
ATOM      8  C   UNL     1       3.051   0.345   0.579  1.00  0.00    -0.018 A 
ATOM      9  C   UNL     1       3.143  -1.044   0.796  1.00  0.00     0.010 A 
ATOM     10  C   UNL     1       4.176   1.028   0.082  1.00  0.00     0.010 A 
ATOM     11  C   UNL     1       4.326  -1.731   0.509  1.00  0.00     0.046 A 
ATOM     12  C   UNL     1       5.357   0.339  -0.204  1.00  0.00     0.046 A 
ATOM     13  C   UNL     1       5.435  -1.043   0.007  1.00  0.00     0.115 A 
BRANCH  13  14
ATOM     14  O   UNL     1       6.607  -1.741  -0.275  1.00  0.00    -0.508 OA
ATOM     15  H   UNL     1       7.428  -1.272  -0.640  1.00  0.00     0.293 HD
ENDBRANCH  13  14
ENDBRANCH   5   8
ENDBRANCH   3   5
ENDBRANCH   1   3
BRANCH   1  16
ATOM     16  C   UNL     1      -1.018  -0.411  -0.187  1.00  0.00     0.086 C 
BRANCH  16  17
ATOM     17  C   UNL     1      -2.174   0.165  -1.009  1.00  0.00     0.051 C 
BRANCH  17  18
ATOM     18  C   UNL     1      -3.497  -0.207  -0.396  1.00  0.00    -0.046 A 
ATOM     19  C   UNL     1      -4.143  -1.397  -0.770  1.00  0.00     0.007 A 
ATOM     20  C   UNL     1      -4.070   0.603   0.598  1.00  0.00     0.007 A 
ATOM     21  C   UNL     1      -5.356  -1.758  -0.175  1.00  0.00     0.046 A 
ATOM     22  C   UNL     1      -5.282   0.240   1.192  1.00  0.00     0.046 A 
ATOM     23  C   UNL     1      -5.930  -0.941   0.805  1.00  0.00     0.115 A 
BRANCH  23  24
ATOM     24  O   UNL     1      -7.138  -1.313   1.389  1.00  0.00    -0.508 OA
ATOM     25  H   UNL     1      -7.579  -0.743   2.102  1.00  0.00     0.293 HD
ENDBRANCH  23  24
ENDBRANCH  17  18
ENDBRANCH  16  17
ENDBRANCH   1  16
TORSDOF 9
