REMARK SMILES COc1cc(NS(C)(=O)=O)ccc1Nc1c2ccccc2nc2ccccc12
REMARK SMILES IDX 3 1 13 2 12 3 11 4 5 5 4 6 2 7 1 8 14 9 15 11 16 12 28 13
REMARK SMILES IDX 17 14 21 15 23 16 27 17 18 18 20 19 22 20 24 21 26 22 19 23
REMARK SMILES IDX 25 24 6 25 7 27 8 28 9 29 10 30
REMARK H PARENT 14 10 6 26
REMARK Flexibility Score: inf
ROOT
ATOM      1  C   UNL     1       1.053  -0.471   0.134  1.00  0.00     0.144 A 
ATOM      2  C   UNL     1       0.509  -0.958   1.347  1.00  0.00     0.081 A 
ATOM      3  C   UNL     1       1.359  -1.180   2.439  1.00  0.00     0.032 A 
ATOM      4  C   UNL     1       2.721  -0.893   2.354  1.00  0.00     0.029 A 
ATOM      5  C   UNL     1       3.270  -0.380   1.173  1.00  0.00     0.052 A 
ATOM      6  C   UNL     1       2.431  -0.181   0.063  1.00  0.00     0.075 A 
ENDROOT
BRANCH   1   7
ATOM      7  O   UNL     1       0.215  -0.304  -0.981  1.00  0.00    -0.494 OA
ATOM      8  C   UNL     1       0.626   0.212  -2.242  1.00  0.00     0.278 C 
ENDBRANCH   1   7
BRANCH   2   9
ATOM      9  N   UNL     1      -0.894  -1.255   1.501  1.00  0.00    -0.351 N 
ATOM     10  H   UNL     1      -1.189  -1.894   2.274  1.00  0.00     0.167 HD
BRANCH   9  11
ATOM     11  C   UNL     1      -1.934  -0.711   0.671  1.00  0.00     0.058 A 
ATOM     12  C   UNL     1      -2.221   0.675   0.685  1.00  0.00     0.024 A 
ATOM     13  C   UNL     1      -2.675  -1.562  -0.176  1.00  0.00     0.024 A 
ATOM     14  C   UNL     1      -1.552   1.572   1.542  1.00  0.00     0.012 A 
ATOM     15  C   UNL     1      -3.223   1.175  -0.181  1.00  0.00     0.073 A 
ATOM     16  C   UNL     1      -3.669  -1.004  -1.015  1.00  0.00     0.073 A 
ATOM     17  C   UNL     1      -2.437  -2.950  -0.230  1.00  0.00     0.012 A 
ATOM     18  C   UNL     1      -1.859   2.935   1.518  1.00  0.00     0.001 A 
ATOM     19  C   UNL     1      -3.521   2.543  -0.197  1.00  0.00     0.029 A 
ATOM     20  N   UNL     1      -3.907   0.332  -0.995  1.00  0.00    -0.248 NA
ATOM     21  C   UNL     1      -4.408  -1.826  -1.873  1.00  0.00     0.029 A 
ATOM     22  C   UNL     1      -3.183  -3.761  -1.090  1.00  0.00     0.001 A 
ATOM     23  C   UNL     1      -2.838   3.420   0.649  1.00  0.00     0.002 A 
ATOM     24  C   UNL     1      -4.167  -3.201  -1.908  1.00  0.00     0.002 A 
ENDBRANCH   9  11
ENDBRANCH   2   9
BRANCH   5  25
ATOM     25  N   UNL     1       4.680  -0.094   1.126  1.00  0.00    -0.284 N 
ATOM     26  H   UNL     1       5.279  -0.379   1.933  1.00  0.00     0.180 HD
BRANCH  25  27
ATOM     27  S   UNL     1       5.456   0.824  -0.128  1.00  0.00     0.229 S 
ATOM     28  C   UNL     1       4.760   2.462  -0.215  1.00  0.00     0.183 C 
ATOM     29  O   UNL     1       5.310   0.120  -1.448  1.00  0.00    -0.207 OA
ATOM     30  O   UNL     1       6.918   0.946   0.195  1.00  0.00    -0.207 OA
ENDBRANCH  25  27
ENDBRANCH   5  25
TORSDOF 5
