REMARK SMILES N=C(O)CCCN=C(c1ccc(Cl)cc1)c1cc(F)ccc1O
REMARK SMILES IDX 5 1 4 2 2 3 1 4 3 6 6 8 7 9 8 10 9 11 10 12 15 13 11 14
REMARK SMILES IDX 14 15 12 16 13 17 16 18 22 19 17 20 21 21 18 22 20 23 19 24
REMARK SMILES IDX 23 25
REMARK H PARENT 1 5 3 7 23 26
REMARK Flexibility Score: inf
ROOT
ATOM      1  C   UNL     1       3.096  -0.048  -0.402  1.00  0.00     0.033 C 
ENDROOT
BRANCH   1   2
ATOM      2  C   UNL     1       3.164   0.020  -1.933  1.00  0.00     0.098 C 
BRANCH   2   3
ATOM      3  C   UNL     1       4.451  -0.573  -2.428  1.00  0.00     0.177 C 
ATOM      4  N   UNL     1       5.531   0.140  -2.490  1.00  0.00    -0.272 NA
ATOM      5  H   UNL     1       5.544   1.146  -2.209  1.00  0.00     0.191 HD
BRANCH   3   6
ATOM      6  O   UNL     1       4.486  -1.916  -2.796  1.00  0.00    -0.497 OA
ATOM      7  H   UNL     1       5.343  -2.346  -3.123  1.00  0.00     0.294 HD
ENDBRANCH   3   6
ENDBRANCH   2   3
ENDBRANCH   1   2
BRANCH   1   8
ATOM      8  C   UNL     1       1.802   0.565   0.138  1.00  0.00     0.143 C 
BRANCH   8   9
ATOM      9  N   UNL     1       0.654  -0.237  -0.282  1.00  0.00    -0.284 NA
ATOM     10  C   UNL     1      -0.579  -0.078   0.114  1.00  0.00     0.076 C 
BRANCH  10  11
ATOM     11  C   UNL     1      -0.940   0.976   1.093  1.00  0.00     0.001 A 
ATOM     12  C   UNL     1      -0.821   2.335   0.759  1.00  0.00     0.012 A 
ATOM     13  C   UNL     1      -1.446   0.617   2.351  1.00  0.00     0.012 A 
ATOM     14  C   UNL     1      -1.184   3.320   1.682  1.00  0.00     0.021 A 
ATOM     15  C   UNL     1      -1.808   1.604   3.273  1.00  0.00     0.021 A 
ATOM     16  C   UNL     1      -1.675   2.956   2.940  1.00  0.00     0.041 A 
ATOM     17  Cl  UNL     1      -2.132   4.194   4.095  1.00  0.00    -0.084 Cl
ENDBRANCH  10  11
BRANCH  10  18
ATOM     18  C   UNL     1      -1.608  -1.047  -0.351  1.00  0.00     0.045 A 
ATOM     19  C   UNL     1      -2.962  -0.674  -0.522  1.00  0.00     0.125 A 
ATOM     20  C   UNL     1      -1.228  -2.373  -0.638  1.00  0.00     0.053 A 
ATOM     21  C   UNL     1      -3.902  -1.626  -0.945  1.00  0.00     0.050 A 
ATOM     22  C   UNL     1      -2.173  -3.310  -1.064  1.00  0.00     0.124 A 
ATOM     23  C   UNL     1      -3.508  -2.937  -1.213  1.00  0.00     0.043 A 
ATOM     24  F   UNL     1      -1.792  -4.584  -1.328  1.00  0.00    -0.207 F 
BRANCH  19  25
ATOM     25  O   UNL     1      -3.373   0.639  -0.295  1.00  0.00    -0.507 OA
ATOM     26  H   UNL     1      -4.338   0.925  -0.416  1.00  0.00     0.293 HD
ENDBRANCH  19  25
ENDBRANCH  10  18
ENDBRANCH   8   9
ENDBRANCH   1   8
TORSDOF 8
