REMARK SMILES CNC(=O)Oc1ccc2c(c1)[C@]1(C)CCN(C)[C@@H]1N2C
REMARK SMILES IDX 5 1 6 2 18 3 16 4 12 5 19 6 17 7 15 8 14 9 13 10 10 11 9 12
REMARK SMILES IDX 20 13 11 14 8 15 7 16 3 17 4 18 2 19 1 20
REMARK H PARENT 2 21
REMARK Flexibility Score: inf
ROOT
ATOM      1  O   UNL     1       3.473  -0.168  -0.702  1.00  0.00    -0.410 OA
ENDROOT
BRANCH   1   2
ATOM      2  C   UNL     1       2.180  -0.372  -0.197  1.00  0.00     0.133 A 
ATOM      3  C   UNL     1      -2.575  -0.243  -0.082  1.00  0.00     0.163 C 
ATOM      4  N   UNL     1      -3.332   0.924   0.406  1.00  0.00    -0.286 NA
ATOM      5  C   UNL     1      -1.513   0.276  -1.096  1.00  0.00     0.030 C 
ATOM      6  N   UNL     1      -1.808  -0.845   1.014  1.00  0.00    -0.358 N 
ATOM      7  C   UNL     1      -4.777   0.655   0.495  1.00  0.00     0.107 C 
ATOM      8  C   UNL     1      -3.068   2.020  -0.534  1.00  0.00     0.087 C 
ATOM      9  C   UNL     1      -1.684   1.795  -1.105  1.00  0.00     0.031 C 
ATOM     10  C   UNL     1      -1.699  -0.343  -2.492  1.00  0.00     0.020 C 
ATOM     11  C   UNL     1      -0.208  -0.136  -0.480  1.00  0.00    -0.011 A 
ATOM     12  C   UNL     1      -0.425  -0.756   0.719  1.00  0.00     0.042 A 
ATOM     13  C   UNL     1      -2.374  -1.597   2.131  1.00  0.00     0.145 C 
ATOM     14  C   UNL     1       1.088   0.072  -0.962  1.00  0.00     0.053 A 
ATOM     15  C   UNL     1       0.634  -1.227   1.498  1.00  0.00     0.030 A 
ATOM     16  C   UNL     1       1.945  -1.038   1.032  1.00  0.00     0.049 A 
ENDBRANCH   1   2
BRANCH   1  17
ATOM     17  C   UNL     1       4.631  -0.014   0.071  1.00  0.00     0.412 C 
ATOM     18  O   UNL     1       4.556   0.261   1.300  1.00  0.00    -0.224 OA
ATOM     19  N   UNL     1       5.909  -0.115  -0.564  1.00  0.00    -0.324 N 
ATOM     20  C   UNL     1       7.153   0.054   0.176  1.00  0.00     0.146 C 
ATOM     21  H   UNL     1       5.950  -0.320  -1.587  1.00  0.00     0.166 HD
ENDBRANCH   1  17
TORSDOF 2
