REMARK SMILES C=C1C[C@@H]2[C@H](CC[C@]3(C)C(=O)CC[C@@H]23)[C@@]2(C)C=CC(=O)C=C12
REMARK SMILES IDX 14 1 13 2 12 3 10 4 11 5 8 6 9 7 7 8 6 9 5 10 4 11 3 12 2 13
REMARK SMILES IDX 1 14 22 15 21 16 19 17 20 18 18 19 17 20 15 21 16 22
REMARK H PARENT
REMARK Flexibility Score: inf
ROOT
ATOM      1  C   UNL     1      -1.799   0.298  -0.648  1.00  0.00     0.006 C 
ATOM      2  C   UNL     1      -2.781   1.425  -0.975  1.00  0.00     0.013 C 
ATOM      3  C   UNL     1      -4.138   0.703  -1.043  1.00  0.00     0.076 C 
ATOM      4  C   UNL     1      -3.913  -0.557  -0.263  1.00  0.00     0.139 C 
ATOM      5  O   UNL     1      -4.773  -1.405  -0.086  1.00  0.00    -0.299 OA
ATOM      6  C   UNL     1      -2.545  -0.615   0.332  1.00  0.00     0.029 C 
ATOM      7  C   UNL     1      -2.658  -0.072   1.784  1.00  0.00     0.020 C 
ATOM      8  C   UNL     1      -1.849  -1.987   0.305  1.00  0.00     0.015 C 
ATOM      9  C   UNL     1      -0.358  -1.853   0.708  1.00  0.00     0.006 C 
ATOM     10  C   UNL     1       0.426  -0.736  -0.072  1.00  0.00     0.007 C 
ATOM     11  C   UNL     1      -0.373   0.617  -0.165  1.00  0.00     0.002 C 
ATOM     12  C   UNL     1       0.319   1.600  -1.128  1.00  0.00     0.039 C 
ATOM     13  C   UNL     1       1.770   1.775  -0.774  1.00  0.00    -0.051 C 
ATOM     14  C   UNL     1       2.331   2.990  -0.786  1.00  0.00     0.013 C 
ATOM     15  C   UNL     1       2.556   0.554  -0.468  1.00  0.00    -0.031 C 
ATOM     16  C   UNL     1       3.791   0.403  -0.980  1.00  0.00     0.056 C 
ATOM     17  C   UNL     1       4.537  -0.840  -0.787  1.00  0.00     0.178 C 
ATOM     18  O   UNL     1       5.710  -0.952  -1.229  1.00  0.00    -0.290 OA
ATOM     19  C   UNL     1       3.897  -1.964  -0.108  1.00  0.00     0.048 C 
ATOM     20  C   UNL     1       2.672  -1.836   0.404  1.00  0.00    -0.011 C 
ATOM     21  C   UNL     1       1.905  -0.512   0.428  1.00  0.00     0.014 C 
ATOM     22  C   UNL     1       1.969   0.008   1.883  1.00  0.00     0.021 C 
ENDROOT
TORSDOF 0
