REMARK SMILES C[N+](C)(C)CCO
REMARK SMILES IDX 5 1 2 2 1 3 3 4 4 5 6 6 7 7
REMARK H PARENT 7 8
REMARK Flexibility Score: inf
ROOT
ATOM      1  C   UNL     1       0.773  -0.559   0.338  1.00  0.00     0.291 C 
ENDROOT
BRANCH   1   2
ATOM      2  N   UNL     1      -0.595  -0.007   0.095  1.00  0.00    -0.329 N 
ATOM      3  C   UNL     1      -1.575  -0.919   0.733  1.00  0.00     0.334 C 
ATOM      4  C   UNL     1      -0.899   0.062  -1.355  1.00  0.00     0.334 C 
ATOM      5  C   UNL     1      -0.750   1.338   0.701  1.00  0.00     0.334 C 
ENDBRANCH   1   2
BRANCH   1   6
ATOM      6  C   UNL     1       1.933   0.268  -0.257  1.00  0.00     0.217 C 
BRANCH   6   7
ATOM      7  O   UNL     1       3.158  -0.337   0.058  1.00  0.00    -0.391 OA
ATOM      8  H   UNL     1       3.253  -1.121  -0.543  1.00  0.00     0.210 HD
ENDBRANCH   6   7
ENDBRANCH   1   6
TORSDOF 3
