REMARK SMILES CCC(=O)O[C@]1(C(=O)SCF)[C@H](C)C[C@H]2[C@@H]3C[C@H](F)C4=CC(=O)C=C[C@]4(C)[C@@]3(F)[C@@H](O)C[C@@]21C
REMARK SMILES IDX 15 1 14 2 12 3 13 4 6 5 33 6 34 7 32 8 30 9 28 10 29 11
REMARK SMILES IDX 16 12 17 13 18 14 19 15 20 16 21 17 22 18 23 19 24 20 25 21
REMARK SMILES IDX 26 22 27 23 5 24 3 25 4 26 2 27 1 28 7 29 8 30 9 31 10 32
REMARK SMILES IDX 11 33 31 34
REMARK H PARENT 31 35
REMARK Flexibility Score: inf
ROOT
ATOM      1  C   UNL     1       0.066   0.050   0.915  1.00  0.00     0.006 C 
ATOM      2  C   UNL     1       0.773   0.220   2.246  1.00  0.00     0.012 C 
ATOM      3  C   UNL     1       1.998   1.105   1.916  1.00  0.00     0.040 C 
ATOM      4  C   UNL     1       3.310   0.385   2.262  1.00  0.00     0.012 C 
ATOM      5  C   UNL     1       1.842   1.573   0.410  1.00  0.00     0.188 C 
ATOM      6  C   UNL     1       0.293   1.386   0.184  1.00  0.00     0.022 C 
ATOM      7  C   UNL     1      -0.482   2.586   0.839  1.00  0.00     0.016 C 
ATOM      8  C   UNL     1      -0.154   1.185  -1.298  1.00  0.00     0.047 C 
ATOM      9  C   UNL     1      -1.593   0.617  -1.456  1.00  0.00     0.154 C 
ATOM     10  C   UNL     1      -1.860  -0.666  -0.579  1.00  0.00     0.152 C 
ATOM     11  F   UNL     1      -1.027  -1.647  -1.113  1.00  0.00    -0.239 F 
ATOM     12  C   UNL     1      -1.404  -0.451   0.911  1.00  0.00     0.037 C 
ATOM     13  C   UNL     1      -1.520  -1.766   1.716  1.00  0.00     0.049 C 
ATOM     14  C   UNL     1      -2.933  -2.350   1.664  1.00  0.00     0.194 C 
ATOM     15  F   UNL     1      -2.945  -3.549   2.359  1.00  0.00    -0.243 F 
ATOM     16  C   UNL     1      -3.363  -2.515   0.220  1.00  0.00    -0.020 C 
ATOM     17  C   UNL     1      -3.751  -3.717  -0.243  1.00  0.00     0.055 C 
ATOM     18  C   UNL     1      -4.098  -3.908  -1.651  1.00  0.00     0.178 C 
ATOM     19  O   UNL     1      -4.441  -5.044  -2.068  1.00  0.00    -0.290 OA
ATOM     20  C   UNL     1      -4.016  -2.778  -2.573  1.00  0.00     0.048 C 
ATOM     21  C   UNL     1      -3.648  -1.574  -2.138  1.00  0.00    -0.009 C 
ATOM     22  C   UNL     1      -3.326  -1.263  -0.675  1.00  0.00     0.047 C 
ATOM     23  C   UNL     1      -4.444  -0.312  -0.180  1.00  0.00     0.024 C 
ENDROOT
BRANCH   5  24
ATOM     24  O   UNL     1       2.534   0.680  -0.487  1.00  0.00    -0.449 OA
BRANCH  24  25
ATOM     25  C   UNL     1       3.906   0.660  -0.784  1.00  0.00     0.306 C 
ATOM     26  O   UNL     1       4.703   1.484  -0.264  1.00  0.00    -0.252 OA
BRANCH  25  27
ATOM     27  C   UNL     1       4.424  -0.374  -1.731  1.00  0.00     0.119 C 
ATOM     28  C   UNL     1       4.364  -1.760  -1.096  1.00  0.00     0.016 C 
ENDBRANCH  25  27
ENDBRANCH  24  25
ENDBRANCH   5  24
BRANCH   5  29
ATOM     29  C   UNL     1       2.320   3.017   0.189  1.00  0.00     0.236 C 
ATOM     30  O   UNL     1       3.022   3.565   1.028  1.00  0.00    -0.282 OA
BRANCH  29  31
ATOM     31  S   UNL     1       1.865   3.966  -1.276  1.00  0.00    -0.050 SA
BRANCH  31  32
ATOM     32  C   UNL     1       3.456   3.763  -2.141  1.00  0.00     0.292 C 
ATOM     33  F   UNL     1       3.532   4.683  -3.165  1.00  0.00    -0.239 F 
ENDBRANCH  31  32
ENDBRANCH  29  31
ENDBRANCH   5  29
BRANCH   9  34
ATOM     34  O   UNL     1      -2.546   1.638  -1.306  1.00  0.00    -0.390 OA
ATOM     35  H   UNL     1      -2.737   1.747  -0.345  1.00  0.00     0.211 HD
ENDBRANCH   9  34
TORSDOF 7
