REMARK SMILES CCc1c2c(nc3ccc(OC(=O)N4CCC(N5CCCCC5)CC4)cc13)-c1cc3c(c(=O)n1C2)COC(=O)[C@]3(O)CC
REMARK SMILES IDX 11 1 10 2 3 3 4 4 27 5 35 6 5 7 7 8 26 9 34 10 28 11 6 12
REMARK SMILES IDX 8 13 32 14 29 15 9 16 31 17 33 18 30 19 36 20 40 21 37 22
REMARK SMILES IDX 38 23 39 24 2 25 1 26 41 27 42 29 43 30 12 31 13 32 14 33
REMARK SMILES IDX 15 34 25 35 16 36 24 37 17 38 18 39 19 40 23 41 20 42 22 43
REMARK SMILES IDX 21 44
REMARK H PARENT 41 28
REMARK Flexibility Score: inf
ROOT
ATOM      1  O   UNL     1       1.594  -0.033  -2.659  1.00  0.00    -0.410 OA
ENDROOT
BRANCH   1   2
ATOM      2  C   UNL     1       0.593   0.735  -2.081  1.00  0.00     0.133 A 
ATOM      3  C   UNL     1      -1.155   0.936   1.232  1.00  0.00    -0.031 A 
ATOM      4  C   UNL     1      -2.521   0.988   1.585  1.00  0.00     0.004 A 
ATOM      5  C   UNL     1      -0.848   1.093  -0.142  1.00  0.00     0.007 A 
ATOM      6  C   UNL     1      -3.214   0.173   2.657  1.00  0.00     0.164 C 
ATOM      7  C   UNL     1      -3.460   1.409   0.663  1.00  0.00     0.093 A 
ATOM      8  C   UNL     1      -1.840   1.628  -1.027  1.00  0.00     0.072 A 
ATOM      9  C   UNL     1       0.358   0.618  -0.699  1.00  0.00     0.058 A 
ATOM     10  N   UNL     1      -4.578   0.093   2.160  1.00  0.00    -0.302 N 
ATOM     11  C   UNL     1      -4.728   0.851   1.059  1.00  0.00     0.071 A 
ATOM     12  N   UNL     1      -3.128   1.760  -0.601  1.00  0.00    -0.246 NA
ATOM     13  C   UNL     1      -1.526   1.880  -2.373  1.00  0.00     0.033 A 
ATOM     14  C   UNL     1      -5.570  -0.750   2.597  1.00  0.00     0.258 A 
ATOM     15  C   UNL     1      -5.923   0.871   0.330  1.00  0.00     0.036 A 
ATOM     16  C   UNL     1      -0.295   1.460  -2.890  1.00  0.00     0.049 A 
ATOM     17  C   UNL     1      -6.793  -0.803   1.890  1.00  0.00     0.062 A 
ATOM     18  O   UNL     1      -5.381  -1.465   3.612  1.00  0.00    -0.269 OA
ATOM     19  C   UNL     1      -6.995   0.041   0.755  1.00  0.00     0.009 A 
ATOM     20  C   UNL     1      -7.877  -1.801   2.252  1.00  0.00     0.275 C 
ATOM     21  C   UNL     1      -8.357   0.020   0.050  1.00  0.00     0.187 C 
ATOM     22  O   UNL     1      -8.521  -2.274   1.071  1.00  0.00    -0.458 OA
ATOM     23  C   UNL     1      -8.780  -1.436  -0.016  1.00  0.00     0.343 C 
ATOM     24  O   UNL     1      -9.408  -1.892  -1.004  1.00  0.00    -0.248 OA
BRANCH   3  25
ATOM     25  C   UNL     1      -0.122   0.522   2.281  1.00  0.00     0.033 C 
ATOM     26  C   UNL     1      -0.168   1.393   3.550  1.00  0.00     0.009 C 
ENDBRANCH   3  25
BRANCH  21  27
ATOM     27  O   UNL     1      -9.272   0.683   0.900  1.00  0.00    -0.374 OA
ATOM     28  H   UNL     1     -10.094   0.914   0.372  1.00  0.00     0.212 HD
ENDBRANCH  21  27
BRANCH  21  29
ATOM     29  C   UNL     1      -8.336   0.654  -1.392  1.00  0.00     0.049 C 
ATOM     30  C   UNL     1      -8.428   2.197  -1.389  1.00  0.00     0.008 C 
ENDBRANCH  21  29
ENDBRANCH   1   2
BRANCH   1  31
ATOM     31  C   UNL     1       2.951   0.240  -2.529  1.00  0.00     0.415 C 
ATOM     32  O   UNL     1       3.401   1.389  -2.776  1.00  0.00    -0.224 OA
ATOM     33  N   UNL     1       3.841  -0.806  -2.150  1.00  0.00    -0.308 N 
ATOM     34  C   UNL     1       4.899  -1.192  -3.099  1.00  0.00     0.124 C 
ATOM     35  C   UNL     1       3.610  -1.512  -0.869  1.00  0.00     0.124 C 
ATOM     36  C   UNL     1       6.198  -1.705  -2.430  1.00  0.00     0.041 C 
ATOM     37  C   UNL     1       4.738  -2.504  -0.565  1.00  0.00     0.041 C 
ATOM     38  C   UNL     1       6.102  -1.882  -0.882  1.00  0.00     0.060 C 
BRANCH  38  39
ATOM     39  N   UNL     1       6.277  -0.643  -0.039  1.00  0.00    -0.300 NA
ATOM     40  C   UNL     1       7.149  -0.860   1.135  1.00  0.00     0.085 C 
ATOM     41  C   UNL     1       6.488   0.701  -0.665  1.00  0.00     0.085 C 
ATOM     42  C   UNL     1       8.649  -0.861   0.751  1.00  0.00     0.016 C 
ATOM     43  C   UNL     1       7.966   1.173  -0.625  1.00  0.00     0.016 C 
ATOM     44  C   UNL     1       8.924  -0.006  -0.501  1.00  0.00     0.003 C 
ENDBRANCH  38  39
ENDBRANCH   1  31
TORSDOF 6
