REMARK SMILES CN1CCC(=C2c3ccccc3C=Cc3ccccc32)CC1
REMARK SMILES IDX 1 1 2 2 3 3 4 4 5 5 21 6 22 7 6 8 7 9 8 10 12 11 9 12 11 13
REMARK SMILES IDX 10 14 13 15 20 17 15 18 19 19 16 20 18 21 17 22 14 23
REMARK H PARENT
REMARK Flexibility Score: 30.00
ROOT
ATOM      1  C   UNL     1       4.494   0.171  -0.231  1.00  0.00     0.105 C 
ATOM      2  N   UNL     1       3.590   0.005  -1.381  1.00  0.00    -0.306 NA
ATOM      3  C   UNL     1       2.711   1.169  -1.593  1.00  0.00     0.088 C 
ATOM      4  C   UNL     1       1.644   1.326  -0.500  1.00  0.00     0.047 C 
ATOM      5  C   UNL     1       0.931   0.022  -0.190  1.00  0.00    -0.059 C 
ATOM      6  C   UNL     1       1.755  -1.252  -0.215  1.00  0.00     0.047 C 
ATOM      7  C   UNL     1       2.815  -1.247  -1.326  1.00  0.00     0.088 C 
ATOM      8  C   UNL     1      -0.358   0.016   0.255  1.00  0.00    -0.011 C 
ENDROOT
BRANCH   8   9
ATOM      9  C   UNL     1      -1.067  -1.224   0.620  1.00  0.00    -0.011 A 
ATOM     10  C   UNL     1      -0.648  -1.959   1.743  1.00  0.00     0.009 A 
ATOM     11  C   UNL     1      -2.184  -1.659  -0.126  1.00  0.00    -0.018 A 
ATOM     12  C   UNL     1      -1.299  -3.143   2.093  1.00  0.00     0.001 A 
ATOM     13  C   UNL     1      -2.812  -2.865   0.226  1.00  0.00     0.009 A 
ATOM     14  C   UNL     1      -2.374  -3.599   1.332  1.00  0.00     0.001 A 
BRANCH  11  15
ATOM     15  C   UNL     1      -2.682  -0.934  -1.322  1.00  0.00     0.009 CG0
ATOM     16  G   UNL     1      -2.740   0.399  -1.469  1.00  0.00     0.000 G0
ENDBRANCH  11  15
ENDBRANCH   8   9
BRANCH   8  17
ATOM     17  C   UNL     1      -1.173   1.241   0.348  1.00  0.00    -0.011 A 
ATOM     18  C   UNL     1      -2.316   1.406  -0.465  1.00  0.00    -0.018 A 
ATOM     19  C   UNL     1      -0.829   2.236   1.279  1.00  0.00     0.009 A 
ATOM     20  C   UNL     1      -3.047   2.603  -0.378  1.00  0.00     0.009 A 
ATOM     21  C   UNL     1      -1.581   3.408   1.369  1.00  0.00     0.001 A 
ATOM     22  C   UNL     1      -2.684   3.595   0.537  1.00  0.00     0.001 A 
BRANCH  18  23
ATOM     23  C   UNL     1      -2.740   0.399  -1.469  1.00  0.00     0.009 CG0
ATOM     24  G   UNL     1      -2.682  -0.934  -1.322  1.00  0.00     0.000 G0
ENDBRANCH  18  23
ENDBRANCH   8  17
TORSDOF 0
