REMARK SMILES CN[C@@H](C)[C@@H](O)c1ccccc1
REMARK SMILES IDX 3 1 4 2 2 3 1 4 5 6 6 7 7 9 8 10 12 11 9 12 11 13 10 14
REMARK H PARENT 2 5 6 8
REMARK Flexibility Score: inf
ROOT
ATOM      1  C   UNL     1      -1.411  -0.452   0.026  1.00  0.00     0.083 C 
ATOM      2  C   UNL     1      -2.692  -1.275  -0.204  1.00  0.00     0.027 C 
ENDROOT
BRANCH   1   3
ATOM      3  N   UNL     1      -1.352   0.722  -0.871  1.00  0.00    -0.314 NA
ATOM      4  C   UNL     1      -2.031   1.885  -0.297  1.00  0.00     0.101 C 
ATOM      5  H   UNL     1      -1.799   0.503  -1.792  1.00  0.00     0.122 HD
ENDBRANCH   1   3
BRANCH   1   6
ATOM      6  C   UNL     1      -0.148  -1.336  -0.148  1.00  0.00     0.161 C 
BRANCH   6   7
ATOM      7  O   UNL     1      -0.070  -1.939  -1.420  1.00  0.00    -0.387 OA
ATOM      8  H   UNL     1      -0.227  -1.247  -2.111  1.00  0.00     0.211 HD
ENDBRANCH   6   7
BRANCH   6   9
ATOM      9  C   UNL     1       1.121  -0.570   0.181  1.00  0.00    -0.018 A 
ATOM     10  C   UNL     1       1.647  -0.624   1.484  1.00  0.00     0.006 A 
ATOM     11  C   UNL     1       1.752   0.254  -0.773  1.00  0.00     0.006 A 
ATOM     12  C   UNL     1       2.793   0.103   1.818  1.00  0.00     0.000 A 
ATOM     13  C   UNL     1       2.898   0.979  -0.433  1.00  0.00     0.000 A 
ATOM     14  C   UNL     1       3.420   0.902   0.860  1.00  0.00     0.000 A 
ENDBRANCH   6   9
ENDBRANCH   1   6
TORSDOF 4
