REMARK SMILES C[C@H]1C[C@H]2[C@@H]3C[C@H](F)C4=CC(=O)C=C[C@]4(C)[C@@]3(F)[C@@H](O)C[C@]2(C)[C@@]1(O)C(=O)CO
REMARK SMILES IDX 26 1 27 2 24 3 4 4 3 5 22 6 5 7 2 8 23 9 21 10 17 11 6 12
REMARK SMILES IDX 1 13 19 14 18 15 15 16 7 17 9 18 14 19 16 20 8 21 10 22
REMARK SMILES IDX 13 23 11 24 12 25 25 26 20 28 28 30 29 31
REMARK H PARENT 25 27 20 29 29 32
REMARK Flexibility Score: inf
ROOT
ATOM      1  C   UNL     1       4.125   0.170  -0.179  1.00  0.00     0.190 C 
ATOM      2  O   UNL     1       4.314   0.994  -1.062  1.00  0.00    -0.294 OA
ENDROOT
BRANCH   1   3
ATOM      3  C   UNL     1       2.805   0.179   0.635  1.00  0.00     0.133 C 
ATOM      4  C   UNL     1       0.443   0.604   0.771  1.00  0.00     0.005 C 
ATOM      5  C   UNL     1       1.083   1.875   1.309  1.00  0.00     0.011 C 
ATOM      6  C   UNL     1       1.477   0.042  -0.218  1.00  0.00     0.010 C 
ATOM      7  C   UNL     1      -0.996   0.679   0.199  1.00  0.00     0.037 C 
ATOM      8  C   UNL     1       2.579   1.512   1.451  1.00  0.00     0.026 C 
ATOM      9  C   UNL     1       1.571   0.892  -1.531  1.00  0.00     0.015 C 
ATOM     10  C   UNL     1       1.035  -1.407  -0.574  1.00  0.00     0.045 C 
ATOM     11  C   UNL     1      -1.465  -0.770  -0.203  1.00  0.00     0.152 C 
ATOM     12  C   UNL     1      -1.957   1.294   1.240  1.00  0.00     0.049 C 
ATOM     13  C   UNL     1       3.478   2.715   1.115  1.00  0.00     0.011 C 
ATOM     14  C   UNL     1      -0.415  -1.486  -1.133  1.00  0.00     0.154 C 
ATOM     15  F   UNL     1      -1.491  -1.524   0.967  1.00  0.00    -0.239 F 
ATOM     16  C   UNL     1      -2.954  -0.775  -0.750  1.00  0.00     0.047 C 
ATOM     17  C   UNL     1      -3.395   1.336   0.725  1.00  0.00     0.194 C 
ATOM     18  C   UNL     1      -3.828  -0.049   0.292  1.00  0.00    -0.020 C 
ATOM     19  C   UNL     1      -3.403  -2.220  -0.985  1.00  0.00    -0.009 C 
ATOM     20  C   UNL     1      -3.137  -0.038  -2.101  1.00  0.00     0.024 C 
ATOM     21  F   UNL     1      -4.207   1.855   1.722  1.00  0.00    -0.243 F 
ATOM     22  C   UNL     1      -4.958  -0.592   0.782  1.00  0.00     0.055 C 
ATOM     23  C   UNL     1      -4.520  -2.738  -0.475  1.00  0.00     0.048 C 
ATOM     24  C   UNL     1      -5.367  -1.946   0.411  1.00  0.00     0.178 C 
ATOM     25  O   UNL     1      -6.436  -2.431   0.864  1.00  0.00    -0.290 OA
BRANCH   3  26
ATOM     26  O   UNL     1       2.851  -0.854   1.603  1.00  0.00    -0.381 OA
ATOM     27  H   UNL     1       3.029  -1.718   1.153  1.00  0.00     0.212 HD
ENDBRANCH   3  26
BRANCH  14  28
ATOM     28  O   UNL     1      -0.460  -0.995  -2.446  1.00  0.00    -0.390 OA
ATOM     29  H   UNL     1      -0.009  -1.665  -3.024  1.00  0.00     0.211 HD
ENDBRANCH  14  28
ENDBRANCH   1   3
BRANCH   1  30
ATOM     30  C   UNL     1       5.246  -0.796   0.109  1.00  0.00     0.234 C 
BRANCH  30  31
ATOM     31  O   UNL     1       5.676  -0.642   1.433  1.00  0.00    -0.388 OA
ATOM     32  H   UNL     1       6.384  -1.322   1.573  1.00  0.00     0.211 HD
ENDBRANCH  30  31
ENDBRANCH   1  30
TORSDOF 5
