REMARK SMILES CC#C[C@]1(O)CC[C@H]2[C@@H]3CCC4=CC(=O)CCC4=C3[C@@H](c3ccc(N(C)C)cc3)C[C@@]21C
REMARK SMILES IDX 8 1 7 2 6 3 4 4 31 5 32 6 30 7 20 8 19 9 18 10 17 11 16 12
REMARK SMILES IDX 14 13 15 14 13 15 12 16 11 17 10 18 9 19 5 20 3 22 2 23 1 24
REMARK SMILES IDX 21 25 22 26 29 27 23 28 28 29 24 30 25 31 26 32 27 33
REMARK H PARENT 5 21
REMARK Flexibility Score: inf
ROOT
ATOM      1  C   UNL     1      -2.494   0.669  -0.727  1.00  0.00     0.006 C 
ATOM      2  C   UNL     1      -3.356   1.253  -1.846  1.00  0.00     0.009 C 
ATOM      3  C   UNL     1      -3.368   2.771  -1.596  1.00  0.00     0.050 C 
ATOM      4  C   UNL     1      -2.385   3.044  -0.426  1.00  0.00     0.131 C 
ATOM      5  C   UNL     1      -1.481   1.768  -0.405  1.00  0.00     0.012 C 
ATOM      6  C   UNL     1      -0.372   1.922  -1.494  1.00  0.00     0.016 C 
ATOM      7  C   UNL     1      -0.835   1.414   0.954  1.00  0.00     0.024 C 
ATOM      8  C   UNL     1      -0.175  -0.000   0.991  1.00  0.00     0.046 C 
ATOM      9  C   UNL     1      -0.905  -1.098   0.178  1.00  0.00    -0.056 C 
ATOM     10  C   UNL     1      -0.637  -2.424   0.400  1.00  0.00    -0.044 C 
ATOM     11  C   UNL     1       0.213  -2.908   1.572  1.00  0.00     0.044 C 
ATOM     12  C   UNL     1       1.035  -4.145   1.202  1.00  0.00     0.085 C 
ATOM     13  C   UNL     1       0.172  -5.182   0.555  1.00  0.00     0.156 C 
ATOM     14  O   UNL     1       0.435  -6.404   0.703  1.00  0.00    -0.295 OA
ATOM     15  C   UNL     1      -0.926  -4.770  -0.327  1.00  0.00     0.051 C 
ATOM     16  C   UNL     1      -1.302  -3.485  -0.427  1.00  0.00    -0.041 C 
ATOM     17  C   UNL     1      -2.347  -3.126  -1.447  1.00  0.00     0.036 C 
ATOM     18  C   UNL     1      -2.957  -1.766  -1.146  1.00  0.00     0.013 C 
ATOM     19  C   UNL     1      -1.850  -0.710  -0.976  1.00  0.00     0.020 C 
ENDROOT
BRANCH   4  20
ATOM     20  O   UNL     1      -1.622   4.205  -0.658  1.00  0.00    -0.377 OA
ATOM     21  H   UNL     1      -2.254   4.958  -0.809  1.00  0.00     0.212 HD
ENDBRANCH   4  20
BRANCH   4  22
ATOM     22  C   UNL     1      -3.154   3.223   0.831  1.00  0.00    -0.068 C 
ATOM     23  C   UNL     1      -3.779   3.368   1.852  1.00  0.00    -0.104 C 
ATOM     24  C   UNL     1      -4.533   3.541   3.092  1.00  0.00     0.107 C 
ENDBRANCH   4  22
BRANCH   8  25
ATOM     25  C   UNL     1       1.324   0.085   0.698  1.00  0.00    -0.041 A 
ATOM     26  C   UNL     1       1.915  -0.491  -0.445  1.00  0.00     0.006 A 
ATOM     27  C   UNL     1       2.160   0.729   1.626  1.00  0.00     0.006 A 
ATOM     28  C   UNL     1       3.291  -0.400  -0.661  1.00  0.00     0.026 A 
ATOM     29  C   UNL     1       3.537   0.819   1.412  1.00  0.00     0.026 A 
ATOM     30  C   UNL     1       4.126   0.259   0.262  1.00  0.00     0.036 A 
BRANCH  30  31
ATOM     31  N   UNL     1       5.556   0.356   0.035  1.00  0.00    -0.378 N 
ATOM     32  C   UNL     1       6.477   0.555   1.161  1.00  0.00     0.143 C 
ATOM     33  C   UNL     1       6.103   0.259  -1.323  1.00  0.00     0.143 C 
ENDBRANCH  30  31
ENDBRANCH   8  25
TORSDOF 4
