REMARK SMILES COC(=O)[C@H]1[C@H]2C[C@@H]3c4[nH]c5cc(OC)ccc5c4CCN3C[C@H]2C[C@@H](OC(=O)c2cc(OC)c(OC)c(OC)c2)[C@@H]1OC
REMARK SMILES IDX 27 1 26 2 24 3 25 4 6 5 23 6 5 7 7 8 22 9 42 10 8 11 21 12
REMARK SMILES IDX 9 13 20 14 19 15 10 16 18 17 11 18 17 20 12 21 16 22 13 23
REMARK SMILES IDX 3 24 4 25 2 26 1 27 43 28 44 29 14 30 15 31 28 32 29 33
REMARK SMILES IDX 30 34 31 35 41 36 32 37 38 38 35 39 33 40 34 41 39 42 40 43
REMARK SMILES IDX 36 44 37 45
REMARK H PARENT 10 19
REMARK Flexibility Score: inf
ROOT
ATOM      1  O   UNL     1      -2.834   0.476   0.159  1.00  0.00    -0.456 OA
ENDROOT
BRANCH   1   2
ATOM      2  C   UNL     1      -1.469   0.871   0.292  1.00  0.00     0.207 C 
ATOM      3  C   UNL     1       0.626   1.510  -1.059  1.00  0.00     0.011 C 
ATOM      4  C   UNL     1      -0.876   1.128  -1.099  1.00  0.00     0.053 C 
ATOM      5  C   UNL     1       1.456   0.541  -0.180  1.00  0.00     0.012 C 
ATOM      6  C   UNL     1       1.171   1.578  -2.520  1.00  0.00     0.089 C 
ATOM      7  C   UNL     1       0.779   0.206   1.176  1.00  0.00     0.135 C 
ATOM      8  C   UNL     1       1.879  -0.673  -1.031  1.00  0.00     0.030 C 
ATOM      9  N   UNL     1       2.572   1.121  -2.663  1.00  0.00    -0.294 NA
ATOM     10  C   UNL     1      -0.687  -0.245   1.010  1.00  0.00     0.173 C 
ATOM     11  C   UNL     1       2.934  -0.206  -2.061  1.00  0.00     0.104 C 
ATOM     12  C   UNL     1       3.605   2.186  -2.766  1.00  0.00     0.090 C 
ATOM     13  C   UNL     1       4.283  -0.166  -1.385  1.00  0.00     0.037 A 
ATOM     14  C   UNL     1       4.424   2.350  -1.480  1.00  0.00     0.053 C 
ATOM     15  C   UNL     1       4.933   1.012  -1.080  1.00  0.00    -0.016 A 
ATOM     16  N   UNL     1       4.903  -1.221  -0.805  1.00  0.00    -0.357 N 
ATOM     17  C   UNL     1       5.977   0.669  -0.252  1.00  0.00     0.003 A 
ATOM     18  C   UNL     1       5.931  -0.696  -0.113  1.00  0.00     0.050 A 
ATOM     19  H   UNL     1       4.602  -2.221  -0.826  1.00  0.00     0.166 HD
ATOM     20  C   UNL     1       6.911   1.447   0.426  1.00  0.00     0.014 A 
ATOM     21  C   UNL     1       6.818  -1.374   0.720  1.00  0.00     0.073 A 
ATOM     22  C   UNL     1       7.826   0.790   1.268  1.00  0.00     0.047 A 
ATOM     23  C   UNL     1       7.782  -0.625   1.423  1.00  0.00     0.120 A 
BRANCH   7  24
ATOM     24  C   UNL     1       1.625  -0.759   1.972  1.00  0.00     0.311 C 
ATOM     25  O   UNL     1       1.295  -1.973   2.080  1.00  0.00    -0.252 OA
BRANCH  24  26
ATOM     26  O   UNL     1       2.833  -0.306   2.510  1.00  0.00    -0.469 OA
ATOM     27  C   UNL     1       3.775  -1.174   3.125  1.00  0.00     0.282 C 
ENDBRANCH  24  26
ENDBRANCH   7  24
BRANCH  10  28
ATOM     28  O   UNL     1      -1.253  -0.447   2.297  1.00  0.00    -0.377 OA
ATOM     29  C   UNL     1      -1.994  -1.648   2.343  1.00  0.00     0.195 C 
ENDBRANCH  10  28
BRANCH  23  30
ATOM     30  O   UNL     1       8.667  -1.313   2.266  1.00  0.00    -0.497 OA
ATOM     31  C   UNL     1       9.673  -0.688   3.054  1.00  0.00     0.278 C 
ENDBRANCH  23  30
ENDBRANCH   1   2
BRANCH   1  32
ATOM     32  C   UNL     1      -3.885   1.370  -0.079  1.00  0.00     0.338 C 
ATOM     33  O   UNL     1      -3.668   2.613  -0.099  1.00  0.00    -0.246 OA
BRANCH  32  34
ATOM     34  C   UNL     1      -5.253   0.848  -0.296  1.00  0.00     0.067 A 
ATOM     35  C   UNL     1      -5.470  -0.532  -0.411  1.00  0.00     0.066 A 
ATOM     36  C   UNL     1      -6.344   1.720  -0.393  1.00  0.00     0.066 A 
ATOM     37  C   UNL     1      -6.761  -1.050  -0.630  1.00  0.00     0.165 A 
ATOM     38  C   UNL     1      -7.644   1.225  -0.602  1.00  0.00     0.165 A 
ATOM     39  C   UNL     1      -7.859  -0.157  -0.729  1.00  0.00     0.203 A 
BRANCH  37  40
ATOM     40  O   UNL     1      -6.970  -2.433  -0.748  1.00  0.00    -0.493 OA
ATOM     41  C   UNL     1      -5.953  -3.427  -0.651  1.00  0.00     0.278 C 
ENDBRANCH  37  40
BRANCH  38  42
ATOM     42  O   UNL     1      -8.756   2.079  -0.692  1.00  0.00    -0.493 OA
ATOM     43  C   UNL     1      -8.702   3.497  -0.571  1.00  0.00     0.278 C 
ENDBRANCH  38  42
BRANCH  39  44
ATOM     44  O   UNL     1      -9.186  -0.571  -0.953  1.00  0.00    -0.490 OA
ATOM     45  C   UNL     1      -9.634  -1.904  -1.174  1.00  0.00     0.278 C 
ENDBRANCH  39  44
ENDBRANCH  32  34
ENDBRANCH   1  32
TORSDOF 10
