REMARK SMILES Oc1ccc(OCc2ccccc2)cc1
REMARK SMILES IDX 6 1 5 2 2 3 3 4 15 5 4 6 14 7 1 8 7 10 8 11 9 12 13 13 10 14
REMARK SMILES IDX 12 15 11 16
REMARK H PARENT 1 9
REMARK Flexibility Score: inf
ROOT
ATOM      1  O   UNL     1       0.220  -1.475   1.321  1.00  0.00    -0.489 OA
ENDROOT
BRANCH   1   2
ATOM      2  C   UNL     1       1.285  -0.804   0.697  1.00  0.00     0.120 A 
ATOM      3  C   UNL     1       3.456   0.443  -0.585  1.00  0.00     0.115 A 
ATOM      4  C   UNL     1       3.358  -0.954  -0.561  1.00  0.00     0.050 A 
ATOM      5  C   UNL     1       2.469   1.217   0.034  1.00  0.00     0.050 A 
ATOM      6  C   UNL     1       2.279  -1.571   0.078  1.00  0.00     0.050 A 
ATOM      7  C   UNL     1       1.389   0.601   0.674  1.00  0.00     0.050 A 
BRANCH   3   8
ATOM      8  O   UNL     1       4.525   1.070  -1.220  1.00  0.00    -0.508 OA
ATOM      9  H   UNL     1       5.256   0.537  -1.677  1.00  0.00     0.293 HD
ENDBRANCH   3   8
ENDBRANCH   1   2
BRANCH   1  10
ATOM     10  C   UNL     1      -0.921  -0.848   1.907  1.00  0.00     0.265 C 
BRANCH  10  11
ATOM     11  C   UNL     1      -1.810  -0.253   0.847  1.00  0.00    -0.011 A 
ATOM     12  C   UNL     1      -2.239  -1.040  -0.235  1.00  0.00     0.007 A 
ATOM     13  C   UNL     1      -2.245   1.080   0.945  1.00  0.00     0.007 A 
ATOM     14  C   UNL     1      -3.073  -0.494  -1.215  1.00  0.00     0.000 A 
ATOM     15  C   UNL     1      -3.079   1.621  -0.038  1.00  0.00     0.000 A 
ATOM     16  C   UNL     1      -3.491   0.836  -1.118  1.00  0.00     0.000 A 
ENDBRANCH  10  11
ENDBRANCH   1  10
TORSDOF 4
