REMARK SMILES CCc1cccc2c3c([nH]c12)C(CC)(CC(=O)O)OCC3
REMARK SMILES IDX 15 1 12 2 3 3 11 4 4 5 10 6 7 7 5 8 9 9 8 11 6 12 21 13
REMARK SMILES IDX 19 14 20 15 2 16 1 17 13 18 14 19 16 20 17 21 18 22
REMARK H PARENT 10 10 18 23
REMARK Flexibility Score: inf
ROOT
ATOM      1  C   UNL     1      -2.440   0.904   0.695  1.00  0.00     0.164 C 
ENDROOT
BRANCH   1   2
ATOM      2  C   UNL     1      -1.888  -0.157  -0.297  1.00  0.00     0.118 C 
ATOM      3  C   UNL     1       3.000   0.706  -0.088  1.00  0.00    -0.024 A 
ATOM      4  C   UNL     1       1.723   0.129  -0.005  1.00  0.00     0.049 A 
ATOM      5  C   UNL     1       4.089  -0.058   0.389  1.00  0.00     0.006 A 
ATOM      6  N   UNL     1       0.542   0.674  -0.371  1.00  0.00    -0.356 N 
ATOM      7  C   UNL     1       1.540  -1.137   0.506  1.00  0.00     0.003 A 
ATOM      8  C   UNL     1       3.890  -1.357   0.907  1.00  0.00     0.001 A 
ATOM      9  C   UNL     1      -0.388  -0.271  -0.100  1.00  0.00     0.052 A 
ATOM     10  H   UNL     1       0.374   1.623  -0.772  1.00  0.00     0.166 HD
ATOM     11  C   UNL     1       0.188  -1.386   0.459  1.00  0.00    -0.014 A 
ATOM     12  C   UNL     1       2.600  -1.911   0.969  1.00  0.00     0.010 A 
ATOM     13  C   UNL     1      -0.598  -2.581   0.862  1.00  0.00     0.066 C 
ATOM     14  O   UNL     1      -2.535  -1.424  -0.104  1.00  0.00    -0.368 OA
ATOM     15  C   UNL     1      -2.064  -2.150   1.029  1.00  0.00     0.166 C 
BRANCH   3  16
ATOM     16  C   UNL     1       3.212   2.102  -0.612  1.00  0.00     0.034 C 
ATOM     17  C   UNL     1       2.951   3.135   0.479  1.00  0.00     0.009 C 
ENDBRANCH   3  16
BRANCH   2  18
ATOM     18  C   UNL     1      -2.177   0.295  -1.754  1.00  0.00     0.039 C 
ATOM     19  C   UNL     1      -1.647  -0.683  -2.808  1.00  0.00     0.007 C 
ENDBRANCH   2  18
ENDBRANCH   1   2
BRANCH   1  20
ATOM     20  C   UNL     1      -3.940   0.941   0.726  1.00  0.00     0.306 C 
ATOM     21  O   UNL     1      -4.566   1.799   0.048  1.00  0.00    -0.252 OA
BRANCH  20  22
ATOM     22  O   UNL     1      -4.641   0.012   1.488  1.00  0.00    -0.481 OA
ATOM     23  H   UNL     1      -5.654   0.017   1.512  1.00  0.00     0.296 HD
ENDBRANCH  20  22
ENDBRANCH   1  20
TORSDOF 5
