REMARK SMILES OCCN1C[C@H](O)[C@@H](O)[C@H](O)[C@H]1CO
REMARK SMILES IDX 4 1 5 2 6 3 8 4 10 5 12 6 3 7 2 8 1 9 13 11 14 12 7 14 11 16
REMARK SMILES IDX 9 18
REMARK H PARENT 1 10 14 13 7 15 11 17 9 19
REMARK Flexibility Score: inf
ROOT
ATOM      1  N   UNL     1       0.680   0.041  -0.046  1.00  0.00    -0.291 NA
ATOM      2  C   UNL     1       0.494  -1.105  -0.967  1.00  0.00     0.119 C 
ATOM      3  C   UNL     1      -0.681  -1.982  -0.528  1.00  0.00     0.159 C 
ATOM      4  C   UNL     1      -1.972  -1.159  -0.557  1.00  0.00     0.174 C 
ATOM      5  C   UNL     1      -1.809   0.080   0.342  1.00  0.00     0.165 C 
ATOM      6  C   UNL     1      -0.535   0.913  -0.011  1.00  0.00     0.114 C 
ENDROOT
BRANCH   1   7
ATOM      7  C   UNL     1       1.915   0.771  -0.441  1.00  0.00     0.113 C 
BRANCH   7   8
ATOM      8  C   UNL     1       3.127   0.214   0.308  1.00  0.00     0.171 C 
BRANCH   8   9
ATOM      9  O   UNL     1       2.939   0.354   1.689  1.00  0.00    -0.395 OA
ATOM     10  H   UNL     1       3.752  -0.020   2.117  1.00  0.00     0.210 HD
ENDBRANCH   8   9
ENDBRANCH   7   8
ENDBRANCH   1   7
BRANCH   6  11
ATOM     11  C   UNL     1      -0.400   2.046   1.043  1.00  0.00     0.178 C 
BRANCH  11  12
ATOM     12  O   UNL     1       0.130   1.541   2.239  1.00  0.00    -0.395 OA
ATOM     13  H   UNL     1       0.210   2.314   2.855  1.00  0.00     0.210 HD
ENDBRANCH  11  12
ENDBRANCH   6  11
BRANCH   3  14
ATOM     14  O   UNL     1      -0.790  -3.117  -1.352  1.00  0.00    -0.389 OA
ATOM     15  H   UNL     1      -0.948  -2.804  -2.281  1.00  0.00     0.211 HD
ENDBRANCH   3  14
BRANCH   5  16
ATOM     16  O   UNL     1      -2.969   0.876   0.271  1.00  0.00    -0.389 OA
ATOM     17  H   UNL     1      -3.045   1.213  -0.660  1.00  0.00     0.211 HD
ENDBRANCH   5  16
BRANCH   4  18
ATOM     18  O   UNL     1      -3.033  -1.953  -0.093  1.00  0.00    -0.388 OA
ATOM     19  H   UNL     1      -3.871  -1.542  -0.432  1.00  0.00     0.211 HD
ENDBRANCH   4  18
TORSDOF 8
