REMARK SMILES N=C(N)N
REMARK SMILES IDX 3 1 2 2 4 3 1 4
REMARK H PARENT 3 5 3 6 4 7 4 8 1 9
REMARK Flexibility Score: inf
ROOT
ATOM      1  N   UNL     1       0.941  -0.796   0.178  1.00  0.00    -0.370 N 
ATOM      2  C   UNL     1      -0.032   0.250   0.141  1.00  0.00     0.183 C 
ATOM      3  N   UNL     1      -1.338   0.028   0.671  1.00  0.00    -0.370 N 
ATOM      4  N   UNL     1       0.264   1.401  -0.373  1.00  0.00    -0.270 NA
ATOM      5  H   UNL     1       1.901  -0.650  -0.206  1.00  0.00     0.159 HD
ATOM      6  H   UNL     1       0.702  -1.724   0.592  1.00  0.00     0.159 HD
ATOM      7  H   UNL     1      -2.057   0.786   0.648  1.00  0.00     0.159 HD
ATOM      8  H   UNL     1      -1.591  -0.895   1.088  1.00  0.00     0.159 HD
ATOM      9  H   UNL     1       1.210   1.598  -0.770  1.00  0.00     0.191 HD
ENDROOT
TORSDOF 0
