REMARK SMILES NS(=O)(=O)c1cc2c(cc1Cl)NC=NS2(=O)=O
REMARK SMILES IDX 2 1 3 2 4 3 1 4 5 7 10 8 6 9 11 10 9 11 7 12 8 13 15 14
REMARK SMILES IDX 12 15 14 16 16 17 17 18 13 19
REMARK H PARENT 1 5 1 6 12 20
REMARK Flexibility Score: inf
ROOT
ATOM      1  S   UNL     1       3.021  -0.504   0.579  1.00  0.00     0.239 S 
ATOM      2  O   UNL     1       2.993  -1.043   1.983  1.00  0.00    -0.207 OA
ATOM      3  O   UNL     1       3.710  -1.502  -0.309  1.00  0.00    -0.207 OA
ENDROOT
BRANCH   1   4
ATOM      4  N   UNL     1       3.893   0.988   0.568  1.00  0.00    -0.225 NA
ATOM      5  H   UNL     1       3.399   1.636   1.222  1.00  0.00     0.137 HD
ATOM      6  H   UNL     1       4.833   0.797   0.982  1.00  0.00     0.137 HD
ENDBRANCH   1   4
BRANCH   1   7
ATOM      7  C   UNL     1       1.376  -0.231  -0.007  1.00  0.00     0.102 A 
ATOM      8  C   UNL     1       1.137   0.257  -1.308  1.00  0.00     0.063 A 
ATOM      9  C   UNL     1       0.287  -0.497   0.835  1.00  0.00     0.048 A 
ATOM     10  Cl  UNL     1       2.452   0.617  -2.421  1.00  0.00    -0.083 Cl
ATOM     11  C   UNL     1      -0.176   0.467  -1.744  1.00  0.00     0.049 A 
ATOM     12  C   UNL     1      -1.023  -0.284   0.390  1.00  0.00     0.114 A 
ATOM     13  C   UNL     1      -1.265   0.199  -0.902  1.00  0.00     0.062 A 
ATOM     14  S   UNL     1      -2.370  -0.619   1.446  1.00  0.00     0.285 S 
ATOM     15  N   UNL     1      -2.604   0.427  -1.383  1.00  0.00    -0.344 N 
ATOM     16  N   UNL     1      -3.814  -0.247   0.581  1.00  0.00    -0.149 NA
ATOM     17  O   UNL     1      -2.282   0.243   2.673  1.00  0.00    -0.199 OA
ATOM     18  O   UNL     1      -2.371  -2.073   1.826  1.00  0.00    -0.199 OA
ATOM     19  C   UNL     1      -3.812   0.199  -0.637  1.00  0.00     0.211 C 
ATOM     20  H   UNL     1      -2.724   0.788  -2.356  1.00  0.00     0.168 HD
ENDBRANCH   1   7
TORSDOF 2
