REMARK SMILES O=C1c2cccc3c2[C@H](CCC3)CN1[C@@H]1CN2CCC1CC2
REMARK SMILES IDX 9 1 10 2 11 3 12 4 7 5 8 6 3 7 4 8 5 9 6 10 2 11 1 12 14 13
REMARK SMILES IDX 13 14 15 15 16 16 20 17 17 18 19 19 21 20 18 21 22 22
REMARK H PARENT
REMARK Flexibility Score: inf
ROOT
ATOM      1  C   UNL     1       1.501   0.691  -0.542  1.00  0.00     0.040 C 
ATOM      2  C   UNL     1       2.115   2.098  -0.613  1.00  0.00     0.010 C 
ATOM      3  C   UNL     1       3.507   2.026  -1.240  1.00  0.00     0.005 C 
ATOM      4  C   UNL     1       4.452   1.201  -0.360  1.00  0.00     0.036 C 
ATOM      5  C   UNL     1       3.843  -0.102   0.107  1.00  0.00    -0.044 A 
ATOM      6  C   UNL     1       2.441  -0.304   0.118  1.00  0.00    -0.027 A 
ATOM      7  C   UNL     1       1.911  -1.498   0.659  1.00  0.00     0.043 A 
ATOM      8  C   UNL     1       2.778  -2.469   1.185  1.00  0.00     0.014 A 
ATOM      9  C   UNL     1       4.156  -2.259   1.179  1.00  0.00     0.001 A 
ATOM     10  C   UNL     1       4.686  -1.081   0.652  1.00  0.00     0.004 A 
ATOM     11  C   UNL     1       0.443  -1.697   0.674  1.00  0.00     0.254 C 
ATOM     12  O   UNL     1      -0.044  -2.786   1.085  1.00  0.00    -0.269 OA
ATOM     13  N   UNL     1      -0.423  -0.637   0.217  1.00  0.00    -0.333 N 
ATOM     14  C   UNL     1       0.155   0.717   0.197  1.00  0.00     0.128 C 
ENDROOT
BRANCH  13  15
ATOM     15  C   UNL     1      -1.829  -0.938  -0.143  1.00  0.00     0.102 C 
ATOM     16  C   UNL     1      -2.306  -0.277  -1.473  1.00  0.00     0.109 C 
ATOM     17  C   UNL     1      -2.828  -0.583   0.990  1.00  0.00     0.015 C 
ATOM     18  N   UNL     1      -3.612   0.403  -1.285  1.00  0.00    -0.301 NA
ATOM     19  C   UNL     1      -4.196  -1.169   0.584  1.00  0.00     0.021 C 
ATOM     20  C   UNL     1      -3.016   0.945   1.087  1.00  0.00     0.021 C 
ATOM     21  C   UNL     1      -4.615  -0.575  -0.789  1.00  0.00     0.085 C 
ATOM     22  C   UNL     1      -3.460   1.495  -0.293  1.00  0.00     0.085 C 
ENDBRANCH  13  15
TORSDOF 1
