REMARK SMILES CCN(CC)CCN1C(=O)CN=C(c2ccccc2F)c2cc(Cl)ccc21
REMARK SMILES IDX 7 1 6 2 3 3 2 4 1 5 4 6 5 7 8 8 27 9 21 10 26 11 22 12 25 13
REMARK SMILES IDX 23 14 24 15 13 16 12 17 14 18 15 19 19 20 16 21 18 22 20 23
REMARK SMILES IDX 17 24 11 25 9 27 10 28
REMARK H PARENT
REMARK Flexibility Score: 90.00
ROOT
ATOM      1  C   UNL     1       1.283  -0.610   0.021  1.00  0.00     0.141 C 
ENDROOT
BRANCH   1   2
ATOM      2  C   UNL     1       2.646  -0.471   0.740  1.00  0.00     0.106 C 
BRANCH   2   3
ATOM      3  N   UNL     1       3.794  -0.357  -0.188  1.00  0.00    -0.302 NA
BRANCH   3   4
ATOM      4  C   UNL     1       3.890  -1.499  -1.123  1.00  0.00     0.081 C 
ATOM      5  C   UNL     1       5.329  -1.691  -1.595  1.00  0.00     0.021 C 
ENDBRANCH   3   4
BRANCH   3   6
ATOM      6  C   UNL     1       3.868   0.963  -0.858  1.00  0.00     0.081 C 
ATOM      7  C   UNL     1       5.087   1.720  -0.349  1.00  0.00     0.021 C 
ENDBRANCH   3   6
ENDBRANCH   2   3
ENDBRANCH   1   2
BRANCH   1   8
ATOM      8  N   UNL     1       0.164  -0.432   0.960  1.00  0.00    -0.309 N 
BRANCH   8   9
ATOM      9  C   UNL     1      -0.610   0.793   0.930  1.00  0.00     0.053 A 
ATOM     10  C   UNL     1      -2.032   0.781   0.900  1.00  0.00     0.026 A 
ATOM     11  C   UNL     1       0.060   2.031   0.901  1.00  0.00     0.028 A 
ATOM     12  C   UNL     1      -2.728   2.004   0.856  1.00  0.00     0.033 A 
ATOM     13  C   UNL     1      -0.649   3.230   0.851  1.00  0.00     0.023 A 
ATOM     14  C   UNL     1      -2.042   3.218   0.830  1.00  0.00     0.041 A 
ATOM     15  Cl  UNL     1      -2.931   4.729   0.772  1.00  0.00    -0.084 Cl
BRANCH  10  16
ATOM     16  C   UNL     1      -2.827  -0.482   0.908  1.00  0.00     0.078 C 
ATOM     17  N   UNL     1      -2.549  -1.451   1.734  1.00  0.00    -0.274 NA
BRANCH  16  18
ATOM     18  C   UNL     1      -3.986  -0.641  -0.009  1.00  0.00     0.036 A 
ATOM     19  C   UNL     1      -3.943  -0.082  -1.301  1.00  0.00     0.013 A 
ATOM     20  C   UNL     1      -5.133  -1.365   0.382  1.00  0.00     0.132 A 
ATOM     21  C   UNL     1      -5.022  -0.234  -2.177  1.00  0.00     0.001 A 
ATOM     22  C   UNL     1      -6.208  -1.512  -0.501  1.00  0.00     0.040 A 
ATOM     23  F   UNL     1      -5.227  -1.906   1.623  1.00  0.00    -0.206 F 
ATOM     24  C   UNL     1      -6.153  -0.948  -1.777  1.00  0.00     0.003 A 
ENDBRANCH  16  18
BRANCH  17  25
ATOM     25  C   UNL     1      -1.434  -1.448   2.669  1.00  0.00     0.243 CG0
ATOM     26  G   UNL     1      -0.160  -1.487   1.891  1.00  0.00     0.000 G0
ENDBRANCH  17  25
ENDBRANCH  10  16
ENDBRANCH   8   9
BRANCH   8  27
ATOM     27  C   UNL     1      -0.160  -1.487   1.891  1.00  0.00     0.248 CG0
ATOM     28  O   UNL     1       0.601  -2.485   2.016  1.00  0.00    -0.272 OA
ATOM     29  G   UNL     1      -1.434  -1.448   2.669  1.00  0.00     0.000 G0
ENDBRANCH   8  27
ENDBRANCH   1   8
TORSDOF 6
