REMARK SMILES CCC(=O)NCC[C@@H]1CCc2ccc3c(c21)CCO3
REMARK SMILES IDX 6 1 5 2 3 3 4 4 2 6 1 7 7 8 8 9 9 10 16 11 10 12 11 13 15 14
REMARK SMILES IDX 12 15 14 16 17 17 13 18 19 19 18 20
REMARK H PARENT 5 5
REMARK Flexibility Score: inf
ROOT
ATOM      1  C   UNL     1       0.889   1.294   0.836  1.00  0.00     0.116 C 
ENDROOT
BRANCH   1   2
ATOM      2  N   UNL     1       1.830   0.474   0.077  1.00  0.00    -0.356 N 
ATOM      3  C   UNL     1       3.104   0.073   0.600  1.00  0.00     0.219 C 
ATOM      4  O   UNL     1       3.478   0.464   1.739  1.00  0.00    -0.275 OA
ATOM      5  H   UNL     1       1.597   0.243  -0.915  1.00  0.00     0.163 HD
BRANCH   3   6
ATOM      6  C   UNL     1       4.016  -0.784  -0.223  1.00  0.00     0.096 C 
ATOM      7  C   UNL     1       4.815   0.068  -1.202  1.00  0.00     0.014 C 
ENDBRANCH   3   6
ENDBRANCH   1   2
BRANCH   1   8
ATOM      8  C   UNL     1       0.198   0.492   1.957  1.00  0.00     0.029 C 
BRANCH   8   9
ATOM      9  C   UNL     1      -0.695  -0.692   1.500  1.00  0.00     0.022 C 
ATOM     10  C   UNL     1       0.111  -1.960   1.113  1.00  0.00     0.013 C 
ATOM     11  C   UNL     1      -1.504  -0.407   0.283  1.00  0.00    -0.035 A 
ATOM     12  C   UNL     1      -0.161  -2.250  -0.377  1.00  0.00     0.036 C 
ATOM     13  C   UNL     1      -1.203  -1.267  -0.753  1.00  0.00    -0.044 A 
ATOM     14  C   UNL     1      -2.508   0.550   0.109  1.00  0.00     0.001 A 
ATOM     15  C   UNL     1      -1.865  -1.180  -1.992  1.00  0.00     0.008 A 
ATOM     16  C   UNL     1      -3.166   0.641  -1.088  1.00  0.00     0.122 A 
ATOM     17  C   UNL     1      -3.041   1.562   1.058  1.00  0.00     0.081 C 
ATOM     18  C   UNL     1      -2.866  -0.204  -2.165  1.00  0.00     0.047 A 
ATOM     19  O   UNL     1      -4.123   1.631  -1.060  1.00  0.00    -0.493 OA
ATOM     20  C   UNL     1      -4.145   2.258   0.223  1.00  0.00     0.234 C 
ENDBRANCH   8   9
ENDBRANCH   1   8
TORSDOF 4
