REMARK SMILES O=C(CCCN1CC=C(n2c(=O)[nH]c3ccccc32)CC1)c1ccc(F)cc1
REMARK SMILES IDX 4 1 3 2 2 3 1 4 22 5 26 6 25 7 24 8 27 9 23 10 28 11 5 12
REMARK SMILES IDX 6 13 21 14 7 15 20 16 8 17 9 18 10 19 11 20 19 21 12 22
REMARK SMILES IDX 13 23 14 24 18 25 15 27 17 28 16 29
REMARK H PARENT 13 26
REMARK Flexibility Score: inf
ROOT
ATOM      1  C   UNL     1       2.309   1.434   1.094  1.00  0.00     0.024 C 
ENDROOT
BRANCH   1   2
ATOM      2  C   UNL     1       3.811   1.118   1.183  1.00  0.00     0.082 C 
BRANCH   2   3
ATOM      3  C   UNL     1       4.469   0.998  -0.172  1.00  0.00     0.162 C 
ATOM      4  O   UNL     1       4.114   1.778  -1.098  1.00  0.00    -0.294 OA
BRANCH   3   5
ATOM      5  C   UNL     1       5.557   0.021  -0.430  1.00  0.00     0.018 A 
ATOM      6  F   UNL     1       8.608  -2.710  -1.212  1.00  0.00    -0.207 F 
ATOM      7  C   UNL     1       7.617  -1.820  -0.958  1.00  0.00     0.123 A 
ATOM      8  C   UNL     1       6.835  -1.327  -2.005  1.00  0.00     0.040 A 
ATOM      9  C   UNL     1       7.381  -1.392   0.351  1.00  0.00     0.040 A 
ATOM     10  C   UNL     1       5.813  -0.410  -1.745  1.00  0.00     0.015 A 
ATOM     11  C   UNL     1       6.360  -0.475   0.616  1.00  0.00     0.015 A 
ENDBRANCH   3   5
ENDBRANCH   2   3
ENDBRANCH   1   2
BRANCH   1  12
ATOM     12  C   UNL     1       1.503   0.260   0.515  1.00  0.00     0.085 C 
BRANCH  12  13
ATOM     13  N   UNL     1       0.081   0.637   0.360  1.00  0.00    -0.299 NA
ATOM     14  C   UNL     1      -0.670   0.409   1.610  1.00  0.00     0.091 C 
ATOM     15  C   UNL     1      -0.540  -0.136  -0.736  1.00  0.00     0.113 C 
ATOM     16  C   UNL     1      -2.072   1.006   1.472  1.00  0.00     0.070 C 
ATOM     17  C   UNL     1      -2.018   0.131  -0.845  1.00  0.00     0.010 C 
ATOM     18  C   UNL     1      -2.747   0.555   0.199  1.00  0.00     0.026 C 
BRANCH  18  19
ATOM     19  N   UNL     1      -4.174   0.701   0.068  1.00  0.00    -0.265 N 
ATOM     20  C   UNL     1      -4.936   1.769   0.419  1.00  0.00     0.330 A 
ATOM     21  C   UNL     1      -5.069  -0.192  -0.407  1.00  0.00     0.074 A 
ATOM     22  O   UNL     1      -4.468   2.832   0.909  1.00  0.00    -0.247 OA
ATOM     23  N   UNL     1      -6.256   1.592   0.177  1.00  0.00    -0.305 N 
ATOM     24  C   UNL     1      -6.324   0.354  -0.340  1.00  0.00     0.067 A 
ATOM     25  C   UNL     1      -4.865  -1.502  -0.849  1.00  0.00     0.029 A 
ATOM     26  H   UNL     1      -7.039   2.258   0.360  1.00  0.00     0.171 HD
ATOM     27  C   UNL     1      -7.459  -0.349  -0.737  1.00  0.00     0.028 A 
ATOM     28  C   UNL     1      -5.992  -2.237  -1.262  1.00  0.00     0.002 A 
ATOM     29  C   UNL     1      -7.282  -1.662  -1.210  1.00  0.00     0.002 A 
ENDBRANCH  18  19
ENDBRANCH  12  13
ENDBRANCH   1  12
TORSDOF 6
