REMARK SMILES CS(=O)(=O)c1ccc(C2=C(c3ccccc3)C(=O)OC2)cc1
REMARK SMILES IDX 5 1 6 2 7 3 8 4 21 5 22 6 2 7 1 8 3 9 4 10 9 11 10 12 20 13
REMARK SMILES IDX 17 14 19 15 18 16 11 17 12 18 16 19 13 20 15 21 14 22
REMARK H PARENT
REMARK Flexibility Score: inf
ROOT
ATOM      1  C   UNL     1       2.586   0.298  -0.768  1.00  0.00     0.067 A 
ATOM      2  C   UNL     1       2.467   1.287   0.216  1.00  0.00     0.021 A 
ATOM      3  C   UNL     1       1.367   1.293   1.079  1.00  0.00     0.010 A 
ATOM      4  C   UNL     1       0.368   0.314   0.964  1.00  0.00    -0.018 A 
ATOM      5  C   UNL     1       0.507  -0.694  -0.007  1.00  0.00     0.010 A 
ATOM      6  C   UNL     1       1.607  -0.698  -0.869  1.00  0.00     0.021 A 
ENDROOT
BRANCH   1   7
ATOM      7  S   UNL     1       3.980   0.282  -1.843  1.00  0.00     0.175 S 
ATOM      8  C   UNL     1       5.278  -0.690  -1.113  1.00  0.00     0.163 C 
ATOM      9  O   UNL     1       3.592  -0.311  -3.169  1.00  0.00    -0.224 OA
ATOM     10  O   UNL     1       4.467   1.686  -2.067  1.00  0.00    -0.224 OA
ENDBRANCH   1   7
BRANCH   4  11
ATOM     11  C   UNL     1      -0.788   0.322   1.891  1.00  0.00     0.012 C 
ATOM     12  C   UNL     1      -2.062   0.061   1.574  1.00  0.00     0.074 C 
ATOM     13  C   UNL     1      -0.651   0.549   3.378  1.00  0.00     0.270 C 
ATOM     14  C   UNL     1      -2.809   0.077   2.814  1.00  0.00     0.339 C 
ATOM     15  O   UNL     1      -1.971   0.358   3.873  1.00  0.00    -0.457 OA
ATOM     16  O   UNL     1      -4.049  -0.106   2.932  1.00  0.00    -0.246 OA
BRANCH  12  17
ATOM     17  C   UNL     1      -2.639  -0.138   0.225  1.00  0.00    -0.011 A 
ATOM     18  C   UNL     1      -3.580  -1.158   0.005  1.00  0.00     0.009 A 
ATOM     19  C   UNL     1      -2.277   0.703  -0.843  1.00  0.00     0.009 A 
ATOM     20  C   UNL     1      -4.132  -1.347  -1.266  1.00  0.00     0.001 A 
ATOM     21  C   UNL     1      -2.831   0.510  -2.112  1.00  0.00     0.001 A 
ATOM     22  C   UNL     1      -3.756  -0.515  -2.324  1.00  0.00     0.000 A 
ENDBRANCH  12  17
ENDBRANCH   4  11
TORSDOF 3
