REMARK SMILES CCOc1ccc2nc(S(N)(=O)=O)sc2c1
REMARK SMILES IDX 4 1 16 2 15 3 7 4 6 5 5 6 8 7 9 8 14 9 3 10 2 11 1 12 10 13
REMARK SMILES IDX 12 14 13 15 11 16
REMARK H PARENT 11 17 11 18
REMARK Flexibility Score: inf
ROOT
ATOM      1  C   UNL     1       1.537   0.294  -0.107  1.00  0.00     0.120 A 
ATOM      2  C   UNL     1       0.399   1.049   0.225  1.00  0.00     0.067 A 
ATOM      3  C   UNL     1      -0.857   0.493   0.005  1.00  0.00     0.059 A 
ATOM      4  C   UNL     1      -1.018  -0.775  -0.527  1.00  0.00     0.083 A 
ATOM      5  C   UNL     1       0.096  -1.543  -0.864  1.00  0.00     0.034 A 
ATOM      6  C   UNL     1       1.378  -1.007  -0.653  1.00  0.00     0.049 A 
ATOM      7  N   UNL     1      -2.304  -1.180  -0.682  1.00  0.00    -0.224 NA
ATOM      8  C   UNL     1      -3.162  -0.218  -0.267  1.00  0.00     0.225 A 
ATOM      9  S   UNL     1      -2.367   1.162   0.306  1.00  0.00    -0.101 S 
ENDROOT
BRANCH   1  10
ATOM     10  O   UNL     1       2.799   0.863   0.118  1.00  0.00    -0.494 OA
BRANCH  10  11
ATOM     11  C   UNL     1       4.036   0.217  -0.169  1.00  0.00     0.226 C 
ATOM     12  C   UNL     1       5.188   1.136   0.204  1.00  0.00     0.049 C 
ENDBRANCH  10  11
ENDBRANCH   1  10
BRANCH   8  13
ATOM     13  S   UNL     1      -4.904  -0.397  -0.315  1.00  0.00     0.265 S 
ATOM     14  O   UNL     1      -5.254  -1.686  -1.004  1.00  0.00    -0.205 OA
ATOM     15  O   UNL     1      -5.505   0.749  -1.079  1.00  0.00    -0.205 OA
BRANCH  13  16
ATOM     16  N   UNL     1      -5.528  -0.423   1.297  1.00  0.00    -0.223 NA
ATOM     17  H   UNL     1      -5.314   0.506   1.723  1.00  0.00     0.137 HD
ATOM     18  H   UNL     1      -6.568  -0.487   1.221  1.00  0.00     0.137 HD
ENDBRANCH  13  16
ENDBRANCH   8  13
TORSDOF 4
