REMARK SMILES CN1CCN(C2=Nc3cc(Cl)ccc3Nc3ccccc32)CC1
REMARK SMILES IDX 1 1 2 2 3 3 4 4 5 5 22 6 23 7 6 8 7 9 8 10 9 11 10 12 11 13
REMARK SMILES IDX 12 14 13 15 14 16 15 17 16 18 17 19 18 20 19 21 20 22 21 23
REMARK H PARENT 15 24
REMARK Flexibility Score: inf
ROOT
ATOM      1  C   UNL     1      -5.333   0.320   0.164  1.00  0.00     0.105 C 
ATOM      2  N   UNL     1      -3.865   0.250   0.108  1.00  0.00    -0.303 NA
ATOM      3  C   UNL     1      -3.427  -0.385  -1.144  1.00  0.00     0.105 C 
ATOM      4  C   UNL     1      -1.944  -0.730  -1.023  1.00  0.00     0.133 C 
ATOM      5  N   UNL     1      -1.200   0.354  -0.365  1.00  0.00    -0.353 N 
ATOM      6  C   UNL     1      -1.811   1.684  -0.226  1.00  0.00     0.133 C 
ATOM      7  C   UNL     1      -3.278   1.601   0.254  1.00  0.00     0.105 C 
ATOM      8  C   UNL     1       0.216   0.198  -0.159  1.00  0.00     0.138 C 
ATOM      9  N   UNL     1       1.004   1.155  -0.560  1.00  0.00    -0.229 NA
ATOM     10  C   UNL     1       2.434   1.246  -0.511  1.00  0.00     0.090 A 
ATOM     11  C   UNL     1       3.004   2.525  -0.436  1.00  0.00     0.051 A 
ATOM     12  C   UNL     1       4.388   2.697  -0.520  1.00  0.00     0.043 A 
ATOM     13  Cl  UNL     1       5.083   4.304  -0.410  1.00  0.00    -0.084 Cl
ATOM     14  C   UNL     1       5.216   1.589  -0.710  1.00  0.00     0.023 A 
ATOM     15  C   UNL     1       4.660   0.313  -0.812  1.00  0.00     0.030 A 
ATOM     16  C   UNL     1       3.272   0.128  -0.707  1.00  0.00     0.065 A 
ATOM     17  N   UNL     1       2.737  -1.193  -0.812  1.00  0.00    -0.353 N 
ATOM     18  C   UNL     1       1.871  -1.691   0.209  1.00  0.00     0.050 A 
ATOM     19  C   UNL     1       2.205  -2.890   0.858  1.00  0.00     0.027 A 
ATOM     20  C   UNL     1       1.416  -3.375   1.901  1.00  0.00     0.002 A 
ATOM     21  C   UNL     1       0.283  -2.670   2.303  1.00  0.00     0.001 A 
ATOM     22  C   UNL     1      -0.073  -1.489   1.649  1.00  0.00     0.014 A 
ATOM     23  C   UNL     1       0.706  -0.992   0.586  1.00  0.00     0.041 A 
ATOM     24  H   UNL     1       3.295  -1.895  -1.350  1.00  0.00     0.167 HD
ENDROOT
TORSDOF 0
