REMARK SMILES NCC(=O)O
REMARK SMILES IDX 2 1 1 2 3 5 4 6 5 7
REMARK H PARENT 1 3 1 4 5 8
REMARK Flexibility Score: inf
ROOT
ATOM      1  C   UNL     1      -0.474  -0.486   0.153  1.00  0.00     0.201 C 
ENDROOT
BRANCH   1   2
ATOM      2  N   UNL     1      -1.327   0.656  -0.157  1.00  0.00    -0.321 NA
ATOM      3  H   UNL     1      -2.308   0.399   0.100  1.00  0.00     0.119 HD
ATOM      4  H   UNL     1      -1.321   0.797  -1.194  1.00  0.00     0.119 HD
ENDBRANCH   1   2
BRANCH   1   5
ATOM      5  C   UNL     1       0.957  -0.132  -0.092  1.00  0.00     0.317 C 
ATOM      6  O   UNL     1       1.482  -0.368  -1.213  1.00  0.00    -0.251 OA
BRANCH   5   7
ATOM      7  O   UNL     1       1.695   0.498   0.904  1.00  0.00    -0.480 OA
ATOM      8  H   UNL     1       2.661   0.759   0.748  1.00  0.00     0.296 HD
ENDBRANCH   5   7
ENDBRANCH   1   5
TORSDOF 3
