REMARK SMILES CCN(CC)C(=O)C1CN2CCc3cc(OC)c(OC)cc3C2CC1OC(C)=O
REMARK SMILES IDX 8 1 9 2 10 3 11 4 12 5 13 6 14 7 15 8 18 9 21 10 22 11 23 12
REMARK SMILES IDX 24 13 25 14 6 15 3 16 7 17 2 18 1 19 4 20 5 21 26 22 27 23
REMARK SMILES IDX 28 24 29 25 19 26 20 27 16 28 17 29
REMARK H PARENT
REMARK Flexibility Score: inf
ROOT
ATOM      1  C   UNL     1      -1.719  -0.661  -0.093  1.00  0.00     0.133 C 
ATOM      2  C   UNL     1      -0.776  -1.764  -0.653  1.00  0.00     0.102 C 
ATOM      3  N   UNL     1       0.671  -1.473  -0.481  1.00  0.00    -0.295 NA
ATOM      4  C   UNL     1       1.262  -2.252   0.633  1.00  0.00     0.090 C 
ATOM      5  C   UNL     1       2.730  -1.882   0.965  1.00  0.00     0.051 C 
ATOM      6  C   UNL     1       3.288  -0.714   0.193  1.00  0.00    -0.038 A 
ATOM      7  C   UNL     1       4.675  -0.504   0.174  1.00  0.00     0.054 A 
ATOM      8  C   UNL     1       5.222   0.613  -0.481  1.00  0.00     0.161 A 
ATOM      9  C   UNL     1       4.372   1.540  -1.099  1.00  0.00     0.161 A 
ATOM     10  C   UNL     1       2.978   1.335  -1.065  1.00  0.00     0.056 A 
ATOM     11  C   UNL     1       2.438   0.209  -0.429  1.00  0.00    -0.023 A 
ATOM     12  C   UNL     1       0.952  -0.026  -0.412  1.00  0.00     0.091 C 
ATOM     13  C   UNL     1       0.289   0.637   0.815  1.00  0.00     0.070 C 
ATOM     14  C   UNL     1      -1.112   0.057   1.129  1.00  0.00     0.192 C 
ENDROOT
BRANCH   1  15
ATOM     15  C   UNL     1      -3.073  -1.245   0.247  1.00  0.00     0.230 C 
ATOM     16  N   UNL     1      -4.236  -0.989  -0.570  1.00  0.00    -0.343 N 
ATOM     17  O   UNL     1      -3.181  -1.972   1.274  1.00  0.00    -0.274 OA
BRANCH  16  18
ATOM     18  C   UNL     1      -4.162  -1.088  -2.034  1.00  0.00     0.116 C 
ATOM     19  C   UNL     1      -4.142  -2.549  -2.464  1.00  0.00     0.027 C 
ENDBRANCH  16  18
BRANCH  16  20
ATOM     20  C   UNL     1      -5.544  -0.868   0.085  1.00  0.00     0.116 C 
ATOM     21  C   UNL     1      -5.628   0.444   0.859  1.00  0.00     0.027 C 
ENDBRANCH  16  20
ENDBRANCH   1  15
BRANCH  14  22
ATOM     22  O   UNL     1      -1.993   1.106   1.535  1.00  0.00    -0.462 OA
BRANCH  22  23
ATOM     23  C   UNL     1      -1.886   1.776   2.758  1.00  0.00     0.302 C 
ATOM     24  C   UNL     1      -2.850   2.868   3.074  1.00  0.00     0.139 C 
ATOM     25  O   UNL     1      -1.020   1.433   3.611  1.00  0.00    -0.253 OA
ENDBRANCH  22  23
ENDBRANCH  14  22
BRANCH   9  26
ATOM     26  O   UNL     1       4.947   2.650  -1.739  1.00  0.00    -0.493 OA
ATOM     27  C   UNL     1       4.209   3.666  -2.418  1.00  0.00     0.278 C 
ENDBRANCH   9  26
BRANCH   8  28
ATOM     28  O   UNL     1       6.610   0.837  -0.537  1.00  0.00    -0.493 OA
ATOM     29  C   UNL     1       7.586  -0.003   0.075  1.00  0.00     0.278 C 
ENDBRANCH   8  28
TORSDOF 7
