REMARK SMILES CC1(C)O[C@@H]2C[C@H]3[C@@H]4C[C@H](F)C5=CC(=O)C=C[C@]5(C)[C@@]4(F)[C@@H](O)C[C@]3(C)[C@]2(C(=O)CO)O1
REMARK SMILES IDX 28 1 29 2 27 3 5 4 6 5 4 6 7 7 25 8 32 9 2 10 8 11 24 12
REMARK SMILES IDX 26 13 1 14 3 15 9 16 20 17 22 18 10 19 18 20 21 21 11 22
REMARK SMILES IDX 12 23 17 24 19 25 13 26 16 27 14 28 15 29 23 30 30 32 31 33
REMARK H PARENT 23 31 31 34
REMARK Flexibility Score: inf
ROOT
ATOM      1  C   UNL     1      -3.529   1.085   1.137  1.00  0.00     0.193 C 
ATOM      2  O   UNL     1      -3.998   2.208   1.018  1.00  0.00    -0.294 OA
ENDROOT
BRANCH   1   3
ATOM      3  C   UNL     1      -2.545   0.540   0.100  1.00  0.00     0.164 C 
ATOM      4  C   UNL     1      -2.627   1.221  -1.271  1.00  0.00     0.162 C 
ATOM      5  C   UNL     1      -1.180   1.375  -1.792  1.00  0.00     0.040 C 
ATOM      6  O   UNL     1      -3.351   0.368  -2.107  1.00  0.00    -0.344 OA
ATOM      7  C   UNL     1      -0.355   0.521  -0.840  1.00  0.00     0.008 C 
ATOM      8  C   UNL     1      -1.047   0.693   0.517  1.00  0.00     0.012 C 
ATOM      9  O   UNL     1      -2.863  -0.801  -0.153  1.00  0.00    -0.333 OA
ATOM     10  C   UNL     1      -3.558  -0.824  -1.382  1.00  0.00     0.164 C 
ATOM     11  C   UNL     1       1.179   0.707  -0.778  1.00  0.00     0.037 C 
ATOM     12  C   UNL     1      -0.503  -0.403   1.469  1.00  0.00     0.045 C 
ATOM     13  C   UNL     1      -0.829   2.114   1.142  1.00  0.00     0.015 C 
ATOM     14  C   UNL     1      -3.047  -2.003  -2.215  1.00  0.00     0.075 C 
ATOM     15  C   UNL     1      -5.059  -0.997  -1.115  1.00  0.00     0.075 C 
ATOM     16  C   UNL     1       1.792   0.575  -2.189  1.00  0.00     0.049 C 
ATOM     17  C   UNL     1       1.779  -0.378   0.195  1.00  0.00     0.152 C 
ATOM     18  C   UNL     1       1.049  -0.373   1.592  1.00  0.00     0.154 C 
ATOM     19  C   UNL     1       3.315   0.693  -2.155  1.00  0.00     0.194 C 
ATOM     20  C   UNL     1       3.360  -0.292   0.266  1.00  0.00     0.047 C 
ATOM     21  F   UNL     1       1.495  -1.623  -0.361  1.00  0.00    -0.239 F 
ATOM     22  F   UNL     1       3.802   0.522  -3.442  1.00  0.00    -0.243 F 
ATOM     23  C   UNL     1       3.888  -0.319  -1.182  1.00  0.00    -0.020 C 
ATOM     24  C   UNL     1       3.895  -1.456   1.105  1.00  0.00    -0.009 C 
ATOM     25  C   UNL     1       3.897   1.003   0.928  1.00  0.00     0.024 C 
ATOM     26  C   UNL     1       4.847  -1.174  -1.579  1.00  0.00     0.055 C 
ATOM     27  C   UNL     1       4.836  -2.299   0.682  1.00  0.00     0.048 C 
ATOM     28  C   UNL     1       5.379  -2.187  -0.668  1.00  0.00     0.178 C 
ATOM     29  O   UNL     1       6.290  -2.968  -1.050  1.00  0.00    -0.290 OA
BRANCH  18  30
ATOM     30  O   UNL     1       1.447   0.719   2.376  1.00  0.00    -0.390 OA
ATOM     31  H   UNL     1       1.212   0.505   3.317  1.00  0.00     0.211 HD
ENDBRANCH  18  30
ENDBRANCH   1   3
BRANCH   1  32
ATOM     32  C   UNL     1      -3.910   0.274   2.344  1.00  0.00     0.234 C 
BRANCH  32  33
ATOM     33  O   UNL     1      -3.511   0.949   3.504  1.00  0.00    -0.388 OA
ATOM     34  H   UNL     1      -3.791   0.377   4.265  1.00  0.00     0.211 HD
ENDBRANCH  32  33
ENDBRANCH   1  32
TORSDOF 4
