REMARK SMILES CCOC(=O)[C@H](CCc1ccccc1)N[C@@H](C)C(=O)N1[C@H](C(=O)O)C[C@@H]2CCC[C@@H]21
REMARK SMILES IDX 16 1 17 2 18 3 19 4 20 5 26 6 27 7 30 8 25 9 28 10 29 11
REMARK SMILES IDX 21 12 22 13 23 14 24 15 15 17 6 19 7 20 8 21 9 22 10 23
REMARK SMILES IDX 14 24 11 25 13 26 12 27 4 28 5 29 3 30 2 31 1 32
REMARK H PARENT 24 16 15 18
REMARK Flexibility Score: inf
ROOT
ATOM      1  C   UNL     1      -0.883  -1.158   0.129  1.00  0.00     0.141 C 
ATOM      2  C   UNL     1      -0.767  -2.675  -0.073  1.00  0.00     0.035 C 
ENDROOT
BRANCH   1   3
ATOM      3  C   UNL     1      -2.161  -0.874   0.890  1.00  0.00     0.240 C 
ATOM      4  O   UNL     1      -2.164  -1.038   2.142  1.00  0.00    -0.273 OA
BRANCH   3   5
ATOM      5  N   UNL     1      -3.388  -0.498   0.225  1.00  0.00    -0.324 N 
ATOM      6  C   UNL     1      -5.747  -0.434  -0.167  1.00  0.00     0.014 C 
ATOM      7  C   UNL     1      -6.689   0.688   0.273  1.00  0.00     0.006 C 
ATOM      8  C   UNL     1      -4.673  -0.535   0.912  1.00  0.00     0.089 C 
ATOM      9  C   UNL     1      -5.017  -0.135  -1.490  1.00  0.00     0.043 C 
ATOM     10  C   UNL     1      -5.857   1.593   1.160  1.00  0.00     0.002 C 
ATOM     11  C   UNL     1      -4.849   0.677   1.836  1.00  0.00     0.025 C 
ATOM     12  C   UNL     1      -3.514  -0.233  -1.203  1.00  0.00     0.195 C 
BRANCH  12  13
ATOM     13  C   UNL     1      -2.812   1.046  -1.569  1.00  0.00     0.326 C 
ATOM     14  O   UNL     1      -2.233   1.148  -2.683  1.00  0.00    -0.250 OA
BRANCH  13  15
ATOM     15  O   UNL     1      -2.835   2.131  -0.698  1.00  0.00    -0.480 OA
ATOM     16  H   UNL     1      -2.376   3.001  -0.940  1.00  0.00     0.296 HD
ENDBRANCH  13  15
ENDBRANCH  12  13
ENDBRANCH   3   5
ENDBRANCH   1   3
BRANCH   1  17
ATOM     17  N   UNL     1       0.272  -0.621   0.880  1.00  0.00    -0.293 NA
ATOM     18  H   UNL     1       0.053   0.380   1.102  1.00  0.00     0.124 HD
BRANCH  17  19
ATOM     19  C   UNL     1       1.545  -0.692   0.125  1.00  0.00     0.165 C 
BRANCH  19  20
ATOM     20  C   UNL     1       2.425   0.551   0.400  1.00  0.00     0.036 C 
BRANCH  20  21
ATOM     21  C   UNL     1       3.708   0.563  -0.446  1.00  0.00     0.038 C 
BRANCH  21  22
ATOM     22  C   UNL     1       4.494   1.822  -0.196  1.00  0.00    -0.048 A 
ATOM     23  C   UNL     1       4.251   2.974  -0.964  1.00  0.00     0.004 A 
ATOM     24  C   UNL     1       5.437   1.873   0.844  1.00  0.00     0.004 A 
ATOM     25  C   UNL     1       4.960   4.152  -0.709  1.00  0.00     0.000 A 
ATOM     26  C   UNL     1       6.144   3.054   1.096  1.00  0.00     0.000 A 
ATOM     27  C   UNL     1       5.907   4.191   0.319  1.00  0.00     0.000 A 
ENDBRANCH  21  22
ENDBRANCH  20  21
ENDBRANCH  19  20
BRANCH  19  28
ATOM     28  C   UNL     1       2.285  -1.938   0.523  1.00  0.00     0.323 C 
ATOM     29  O   UNL     1       2.420  -2.229   1.744  1.00  0.00    -0.250 OA
BRANCH  28  30
ATOM     30  O   UNL     1       2.848  -2.748  -0.470  1.00  0.00    -0.465 OA
BRANCH  30  31
ATOM     31  C   UNL     1       3.659  -3.885  -0.188  1.00  0.00     0.229 C 
ATOM     32  C   UNL     1       5.053  -3.453   0.254  1.00  0.00     0.049 C 
ENDBRANCH  30  31
ENDBRANCH  28  30
ENDBRANCH  19  28
ENDBRANCH  17  19
ENDBRANCH   1  17
TORSDOF 12
