REMARK SMILES CCCCCCCN(CC)CCCC(O)c1ccc(NS(C)(=O)=O)cc1
REMARK SMILES IDX 11 1 8 2 7 3 6 4 5 5 4 6 3 7 2 8 1 9 9 10 10 11 12 12 13 13
REMARK SMILES IDX 14 14 15 15 16 17 17 18 26 19 18 20 25 21 19 22 20 23 21 25
REMARK SMILES IDX 22 26 23 27 24 28
REMARK H PARENT 15 16 20 24
REMARK Flexibility Score: inf
ROOT
ATOM      1  C   UNL     1       1.172   0.563   1.226  1.00  0.00     0.084 C 
ENDROOT
BRANCH   1   2
ATOM      2  N   UNL     1       1.362  -0.454   0.169  1.00  0.00    -0.304 NA
BRANCH   2   3
ATOM      3  C   UNL     1       1.830   0.102  -1.125  1.00  0.00     0.084 C 
BRANCH   3   4
ATOM      4  C   UNL     1       3.028   1.081  -1.041  1.00  0.00     0.016 C 
BRANCH   4   5
ATOM      5  C   UNL     1       4.330   0.433  -0.552  1.00  0.00     0.001 C 
BRANCH   5   6
ATOM      6  C   UNL     1       5.502   1.420  -0.647  1.00  0.00     0.000 C 
BRANCH   6   7
ATOM      7  C   UNL     1       6.784   0.893   0.022  1.00  0.00    -0.000 C 
BRANCH   7   8
ATOM      8  C   UNL     1       7.368  -0.380  -0.617  1.00  0.00    -0.003 C 
ATOM      9  C   UNL     1       7.791  -0.177  -2.072  1.00  0.00     0.004 C 
ENDBRANCH   7   8
ENDBRANCH   6   7
ENDBRANCH   5   6
ENDBRANCH   4   5
ENDBRANCH   3   4
ENDBRANCH   2   3
BRANCH   2  10
ATOM     10  C   UNL     1       2.107  -1.657   0.610  1.00  0.00     0.081 C 
ATOM     11  C   UNL     1       1.193  -2.875   0.563  1.00  0.00     0.021 C 
ENDBRANCH   2  10
ENDBRANCH   1   2
BRANCH   1  12
ATOM     12  C   UNL     1       0.112   0.129   2.250  1.00  0.00     0.019 C 
BRANCH  12  13
ATOM     13  C   UNL     1      -1.271  -0.167   1.638  1.00  0.00     0.038 C 
BRANCH  13  14
ATOM     14  C   UNL     1      -1.998   1.093   1.108  1.00  0.00     0.144 C 
BRANCH  14  15
ATOM     15  O   UNL     1      -1.476   1.514  -0.128  1.00  0.00    -0.388 OA
ATOM     16  H   UNL     1      -1.551   0.759  -0.768  1.00  0.00     0.211 HD
ENDBRANCH  14  15
BRANCH  14  17
ATOM     17  C   UNL     1      -3.494   0.863   0.989  1.00  0.00    -0.019 A 
ATOM     18  C   UNL     1      -4.394   1.706   1.662  1.00  0.00     0.008 A 
ATOM     19  C   UNL     1      -4.005  -0.179   0.195  1.00  0.00     0.008 A 
ATOM     20  C   UNL     1      -5.772   1.505   1.551  1.00  0.00     0.027 A 
ATOM     21  C   UNL     1      -5.384  -0.382   0.088  1.00  0.00     0.027 A 
ATOM     22  C   UNL     1      -6.284   0.459   0.767  1.00  0.00     0.048 A 
BRANCH  22  23
ATOM     23  N   UNL     1      -7.711   0.285   0.683  1.00  0.00    -0.284 N 
ATOM     24  H   UNL     1      -8.330   0.958   1.188  1.00  0.00     0.180 HD
BRANCH  23  25
ATOM     25  S   UNL     1      -8.501  -1.000  -0.178  1.00  0.00     0.229 S 
ATOM     26  C   UNL     1      -8.373  -0.738  -1.934  1.00  0.00     0.183 C 
ATOM     27  O   UNL     1      -7.898  -2.323   0.202  1.00  0.00    -0.207 OA
ATOM     28  O   UNL     1      -9.955  -1.010   0.200  1.00  0.00    -0.207 OA
ENDBRANCH  23  25
ENDBRANCH  22  23
ENDBRANCH  14  17
ENDBRANCH  13  14
ENDBRANCH  12  13
ENDBRANCH   1  12
TORSDOF 15
