REMARK SMILES CCC(=O)O[C@@H](OP(=O)(CCCCc1ccccc1)CC(=O)N1C[C@H](C2CCCCC2)C[C@H]1C(=O)O)C(C)C
REMARK SMILES IDX 8 1 9 2 7 3 6 4 5 5 3 6 4 7 2 8 1 9 37 10 38 11 39 12 10 13
REMARK SMILES IDX 11 14 12 15 13 16 14 17 15 18 19 19 16 20 18 21 17 22 20 23
REMARK SMILES IDX 21 24 22 25 23 26 24 27 33 28 25 29 32 30 34 31 35 32 36 33
REMARK SMILES IDX 26 35 27 36 31 37 28 38 30 39 29 40
REMARK H PARENT 36 34
REMARK Flexibility Score: inf
ROOT
ATOM      1  P   UNL     1      -2.131   0.235  -0.016  1.00  0.00     0.215 P 
ATOM      2  O   UNL     1      -3.220   0.062   1.022  1.00  0.00    -0.292 OA
ENDROOT
BRANCH   1   3
ATOM      3  O   UNL     1      -2.178   1.777  -0.768  1.00  0.00    -0.286 OA
BRANCH   3   4
ATOM      4  C   UNL     1      -3.052   2.668  -0.102  1.00  0.00     0.319 C 
BRANCH   4   5
ATOM      5  O   UNL     1      -3.320   3.746  -1.002  1.00  0.00    -0.435 OA
BRANCH   5   6
ATOM      6  C   UNL     1      -4.548   4.413  -1.099  1.00  0.00     0.307 C 
ATOM      7  O   UNL     1      -5.549   4.028  -0.437  1.00  0.00    -0.252 OA
BRANCH   6   8
ATOM      8  C   UNL     1      -4.655   5.630  -1.961  1.00  0.00     0.119 C 
ATOM      9  C   UNL     1      -4.205   6.866  -1.191  1.00  0.00     0.016 C 
ENDBRANCH   6   8
ENDBRANCH   5   6
ENDBRANCH   4   5
BRANCH   4  10
ATOM     10  C   UNL     1      -2.401   3.222   1.197  1.00  0.00     0.052 C 
ATOM     11  C   UNL     1      -1.060   3.916   0.911  1.00  0.00     0.014 C 
ATOM     12  C   UNL     1      -3.342   4.172   1.948  1.00  0.00     0.014 C 
ENDBRANCH   4  10
ENDBRANCH   3   4
ENDBRANCH   1   3
BRANCH   1  13
ATOM     13  C   UNL     1      -2.365  -1.033  -1.308  1.00  0.00     0.099 C 
BRANCH  13  14
ATOM     14  C   UNL     1      -1.997  -2.429  -0.789  1.00  0.00     0.011 C 
BRANCH  14  15
ATOM     15  C   UNL     1      -2.217  -3.527  -1.845  1.00  0.00     0.005 C 
BRANCH  15  16
ATOM     16  C   UNL     1      -3.694  -3.878  -2.089  1.00  0.00     0.035 C 
BRANCH  16  17
ATOM     17  C   UNL     1      -4.346  -4.464  -0.862  1.00  0.00    -0.048 A 
ATOM     18  C   UNL     1      -5.199  -3.681  -0.065  1.00  0.00     0.004 A 
ATOM     19  C   UNL     1      -4.071  -5.788  -0.480  1.00  0.00     0.004 A 
ATOM     20  C   UNL     1      -5.771  -4.217   1.093  1.00  0.00     0.000 A 
ATOM     21  C   UNL     1      -4.643  -6.320   0.680  1.00  0.00     0.000 A 
ATOM     22  C   UNL     1      -5.493  -5.536   1.465  1.00  0.00     0.000 A 
ENDBRANCH  16  17
ENDBRANCH  15  16
ENDBRANCH  14  15
ENDBRANCH  13  14
ENDBRANCH   1  13
BRANCH   1  23
ATOM     23  C   UNL     1      -0.510   0.053   0.808  1.00  0.00     0.199 C 
BRANCH  23  24
ATOM     24  C   UNL     1       0.660   0.163  -0.137  1.00  0.00     0.233 C 
ATOM     25  O   UNL     1       0.473   0.410  -1.360  1.00  0.00    -0.274 OA
BRANCH  24  26
ATOM     26  N   UNL     1       2.004  -0.013   0.344  1.00  0.00    -0.328 N 
ATOM     27  C   UNL     1       3.134  -0.210  -0.549  1.00  0.00     0.124 C 
ATOM     28  C   UNL     1       2.383  -0.053   1.749  1.00  0.00     0.195 C 
ATOM     29  C   UNL     1       4.377  -0.261   0.350  1.00  0.00     0.014 C 
ATOM     30  C   UNL     1       3.825  -0.557   1.755  1.00  0.00     0.043 C 
BRANCH  28  31
ATOM     31  C   UNL     1       2.284   1.322   2.349  1.00  0.00     0.326 C 
ATOM     32  O   UNL     1       1.755   1.479   3.482  1.00  0.00    -0.250 OA
BRANCH  31  33
ATOM     33  O   UNL     1       2.801   2.422   1.668  1.00  0.00    -0.480 OA
ATOM     34  H   UNL     1       2.735   3.354   2.060  1.00  0.00     0.296 HD
ENDBRANCH  31  33
ENDBRANCH  28  31
BRANCH  29  35
ATOM     35  C   UNL     1       5.440  -1.296  -0.120  1.00  0.00    -0.006 C 
ATOM     36  C   UNL     1       6.590  -1.416   0.919  1.00  0.00     0.004 C 
ATOM     37  C   UNL     1       5.977  -0.972  -1.547  1.00  0.00     0.004 C 
ATOM     38  C   UNL     1       7.870  -1.974   0.287  1.00  0.00     0.000 C 
ATOM     39  C   UNL     1       7.308  -0.215  -1.506  1.00  0.00     0.000 C 
ATOM     40  C   UNL     1       8.409  -1.047  -0.820  1.00  0.00     0.000 C 
ENDBRANCH  29  35
ENDBRANCH  24  26
ENDBRANCH  23  24
ENDBRANCH   1  23
TORSDOF 17
