REMARK SMILES OC(CCN1CCCCC1)(c1ccccc1)C1CCCC1
REMARK SMILES IDX 3 1 2 2 1 3 17 5 18 6 21 7 19 8 20 9 11 10 12 11 16 12 13 13
REMARK SMILES IDX 15 14 14 15 4 16 5 17 6 18 10 19 7 20 9 21 8 22
REMARK H PARENT 1 4
REMARK Flexibility Score: inf
ROOT
ATOM      1  C   UNL     1       0.167   0.360   0.174  1.00  0.00     0.056 C 
ENDROOT
BRANCH   1   2
ATOM      2  C   UNL     1      -1.197   0.220   0.941  1.00  0.00     0.094 C 
BRANCH   2   3
ATOM      3  O   UNL     1      -0.911   0.080   2.317  1.00  0.00    -0.385 OA
ATOM      4  H   UNL     1      -0.347   0.848   2.601  1.00  0.00     0.211 HD
ENDBRANCH   2   3
BRANCH   2   5
ATOM      5  C   UNL     1      -2.080  -1.014   0.518  1.00  0.00     0.025 C 
ATOM      6  C   UNL     1      -2.179  -1.318  -0.981  1.00  0.00     0.007 C 
ATOM      7  C   UNL     1      -1.726  -2.354   1.190  1.00  0.00     0.007 C 
ATOM      8  C   UNL     1      -2.606  -2.771  -1.049  1.00  0.00     0.000 C 
ATOM      9  C   UNL     1      -1.933  -3.442   0.138  1.00  0.00     0.000 C 
ENDBRANCH   2   5
BRANCH   2  10
ATOM     10  C   UNL     1      -2.042   1.494   0.727  1.00  0.00    -0.016 A 
ATOM     11  C   UNL     1      -2.729   2.093   1.808  1.00  0.00     0.007 A 
ATOM     12  C   UNL     1      -2.242   2.033  -0.564  1.00  0.00     0.007 A 
ATOM     13  C   UNL     1      -3.530   3.222   1.611  1.00  0.00     0.000 A 
ATOM     14  C   UNL     1      -3.046   3.162  -0.753  1.00  0.00     0.000 A 
ATOM     15  C   UNL     1      -3.683   3.759   0.334  1.00  0.00     0.000 A 
ENDBRANCH   2  10
ENDBRANCH   1   2
BRANCH   1  16
ATOM     16  C   UNL     1       1.164  -0.801   0.411  1.00  0.00     0.088 C 
BRANCH  16  17
ATOM     17  N   UNL     1       2.528  -0.546  -0.104  1.00  0.00    -0.303 NA
ATOM     18  C   UNL     1       3.332   0.326   0.783  1.00  0.00     0.084 C 
ATOM     19  C   UNL     1       2.568  -0.115  -1.513  1.00  0.00     0.084 C 
ATOM     20  C   UNL     1       4.650   0.784   0.121  1.00  0.00     0.016 C 
ATOM     21  C   UNL     1       3.989  -0.285  -2.080  1.00  0.00     0.016 C 
ATOM     22  C   UNL     1       5.075  -0.175  -0.994  1.00  0.00     0.003 C 
ENDBRANCH  16  17
ENDBRANCH   1  16
TORSDOF 6
