REMARK SMILES Cc1cccc(CN2CCN(C(c3ccccc3)c3ccc(Cl)cc3)CC2)c1
REMARK SMILES IDX 8 1 9 2 10 3 11 4 26 5 27 6 7 7 6 8 1 9 2 10 28 11 3 12 4 13
REMARK SMILES IDX 5 14 12 15 13 16 14 17 18 18 15 19 17 20 16 21 19 22 20 23
REMARK SMILES IDX 25 24 21 25 24 26 22 27 23 28
REMARK H PARENT
REMARK Flexibility Score: inf
ROOT
ATOM      1  N   UNL     1       1.616  -0.407  -0.928  1.00  0.00    -0.297 NA
ATOM      2  C   UNL     1       0.764  -0.393   0.291  1.00  0.00     0.100 C 
ATOM      3  C   UNL     1      -0.443  -1.339   0.178  1.00  0.00     0.101 C 
ATOM      4  N   UNL     1      -1.296  -1.018  -0.995  1.00  0.00    -0.290 NA
ATOM      5  C   UNL     1      -0.561  -0.404  -2.125  1.00  0.00     0.101 C 
ATOM      6  C   UNL     1       0.903  -0.857  -2.145  1.00  0.00     0.100 C 
ENDROOT
BRANCH   1   7
ATOM      7  C   UNL     1       2.855  -1.186  -0.735  1.00  0.00     0.120 C 
BRANCH   7   8
ATOM      8  C   UNL     1       3.831  -0.421   0.121  1.00  0.00    -0.034 A 
ATOM      9  C   UNL     1       5.783   2.850  -0.018  1.00  0.00     0.044 C 
ATOM     10  C   UNL     1       5.261   1.525   0.454  1.00  0.00    -0.051 A 
ATOM     11  C   UNL     1       4.353   0.801  -0.335  1.00  0.00     0.008 A 
ATOM     12  C   UNL     1       5.620   1.035   1.719  1.00  0.00     0.003 A 
ATOM     13  C   UNL     1       5.103  -0.180   2.175  1.00  0.00     0.001 A 
ATOM     14  C   UNL     1       4.215  -0.908   1.380  1.00  0.00     0.005 A 
ENDBRANCH   7   8
ENDBRANCH   1   7
BRANCH   4  15
ATOM     15  C   UNL     1      -2.587  -0.334  -0.699  1.00  0.00     0.117 C 
BRANCH  15  16
ATOM     16  C   UNL     1      -2.397   0.973   0.078  1.00  0.00    -0.026 A 
ATOM     17  C   UNL     1      -2.334   1.001   1.487  1.00  0.00     0.006 A 
ATOM     18  C   UNL     1      -2.291   2.190  -0.623  1.00  0.00     0.006 A 
ATOM     19  C   UNL     1      -2.139   2.206   2.167  1.00  0.00     0.000 A 
ATOM     20  C   UNL     1      -2.094   3.393   0.062  1.00  0.00     0.000 A 
ATOM     21  C   UNL     1      -2.015   3.400   1.456  1.00  0.00     0.000 A 
ENDBRANCH  15  16
BRANCH  15  22
ATOM     22  C   UNL     1      -3.608  -1.269  -0.052  1.00  0.00    -0.026 A 
ATOM     23  C   UNL     1      -3.418  -2.667  -0.009  1.00  0.00     0.007 A 
ATOM     24  C   UNL     1      -4.834  -0.747   0.410  1.00  0.00     0.007 A 
ATOM     25  C   UNL     1      -4.392  -3.502   0.547  1.00  0.00     0.021 A 
ATOM     26  C   UNL     1      -5.804  -1.586   0.965  1.00  0.00     0.021 A 
ATOM     27  C   UNL     1      -5.582  -2.962   1.041  1.00  0.00     0.041 A 
ATOM     28  Cl  UNL     1      -6.802  -4.013   1.736  1.00  0.00    -0.084 Cl
ENDBRANCH  15  22
ENDBRANCH   4  15
TORSDOF 5
