REMARK SMILES CCOC(=O)C1(c2ccccc2)CCN(CCc2ccc(N)cc2)CC1
REMARK SMILES IDX 6 1 13 2 14 3 15 4 25 5 26 6 4 7 5 8 3 9 2 10 1 11 7 12 8 13
REMARK SMILES IDX 12 14 9 15 11 16 10 17 16 18 17 19 18 20 19 21 24 22 20 23
REMARK SMILES IDX 23 24 21 25 22 26
REMARK H PARENT 22 27 22 28
REMARK Flexibility Score: inf
ROOT
ATOM      1  C   UNL     1      -2.188  -0.817  -0.503  1.00  0.00     0.095 C 
ATOM      2  C   UNL     1      -1.381  -1.501   0.649  1.00  0.00     0.039 C 
ATOM      3  C   UNL     1       0.136  -1.226   0.595  1.00  0.00     0.086 C 
ATOM      4  N   UNL     1       0.405   0.030  -0.125  1.00  0.00    -0.303 NA
ATOM      5  C   UNL     1       0.043  -0.051  -1.555  1.00  0.00     0.086 C 
ATOM      6  C   UNL     1      -1.292  -0.803  -1.775  1.00  0.00     0.039 C 
ENDROOT
BRANCH   1   7
ATOM      7  C   UNL     1      -2.544   0.624  -0.161  1.00  0.00     0.316 C 
ATOM      8  O   UNL     1      -3.287   1.282  -0.943  1.00  0.00    -0.251 OA
BRANCH   7   9
ATOM      9  O   UNL     1      -2.035   1.229   0.996  1.00  0.00    -0.465 OA
BRANCH   9  10
ATOM     10  C   UNL     1      -2.378   2.549   1.409  1.00  0.00     0.229 C 
ATOM     11  C   UNL     1      -3.780   2.575   2.008  1.00  0.00     0.049 C 
ENDBRANCH   9  10
ENDBRANCH   7   9
ENDBRANCH   1   7
BRANCH   1  12
ATOM     12  C   UNL     1      -3.508  -1.588  -0.693  1.00  0.00    -0.031 A 
ATOM     13  C   UNL     1      -4.429  -1.639   0.378  1.00  0.00     0.005 A 
ATOM     14  C   UNL     1      -3.848  -2.258  -1.892  1.00  0.00     0.005 A 
ATOM     15  C   UNL     1      -5.637  -2.329   0.256  1.00  0.00     0.000 A 
ATOM     16  C   UNL     1      -5.060  -2.947  -2.006  1.00  0.00     0.000 A 
ATOM     17  C   UNL     1      -5.953  -2.983  -0.935  1.00  0.00     0.000 A 
ENDBRANCH   1  12
BRANCH   4  18
ATOM     18  C   UNL     1       1.757   0.583   0.108  1.00  0.00     0.089 C 
BRANCH  18  19
ATOM     19  C   UNL     1       2.908  -0.404  -0.182  1.00  0.00     0.051 C 
BRANCH  19  20
ATOM     20  C   UNL     1       4.237   0.273   0.024  1.00  0.00    -0.047 A 
ATOM     21  C   UNL     1       4.846   0.972  -1.030  1.00  0.00     0.006 A 
ATOM     22  C   UNL     1       4.847   0.267   1.289  1.00  0.00     0.006 A 
ATOM     23  C   UNL     1       6.060   1.636  -0.828  1.00  0.00     0.026 A 
ATOM     24  C   UNL     1       6.062   0.930   1.490  1.00  0.00     0.026 A 
ATOM     25  C   UNL     1       6.675   1.617   0.432  1.00  0.00     0.031 A 
BRANCH  25  26
ATOM     26  N   UNL     1       7.912   2.302   0.640  1.00  0.00    -0.399 N 
ATOM     27  H   UNL     1       8.371   2.828  -0.138  1.00  0.00     0.156 HD
ATOM     28  H   UNL     1       8.371   2.304   1.578  1.00  0.00     0.156 HD
ENDBRANCH  25  26
ENDBRANCH  19  20
ENDBRANCH  18  19
ENDBRANCH   4  18
TORSDOF 8
