REMARK SMILES CCOC(=O)C1=C[C@@H](OC(CC)CC)[C@H](NC(C)=O)[C@@H](N)C1
REMARK SMILES IDX 6 1 7 2 8 3 15 4 20 5 22 6 4 7 5 8 3 9 2 10 1 11 9 12 10 13
REMARK SMILES IDX 11 14 12 15 13 16 14 17 21 18 16 21 17 22 18 24 19 25
REMARK H PARENT 21 19 21 20 16 23
REMARK Flexibility Score: inf
ROOT
ATOM      1  C   UNL     1       2.138  -0.096   0.095  1.00  0.00     0.037 C 
ATOM      2  C   UNL     1       1.009  -0.833   0.090  1.00  0.00     0.018 C 
ATOM      3  C   UNL     1      -0.355  -0.277  -0.239  1.00  0.00     0.166 C 
ATOM      4  C   UNL     1      -0.418   1.256  -0.068  1.00  0.00     0.132 C 
ATOM      5  C   UNL     1       0.806   1.908  -0.732  1.00  0.00     0.081 C 
ATOM      6  C   UNL     1       2.096   1.409  -0.055  1.00  0.00     0.064 C 
ENDROOT
BRANCH   1   7
ATOM      7  C   UNL     1       3.447  -0.735   0.370  1.00  0.00     0.333 C 
ATOM      8  O   UNL     1       3.533  -1.988   0.501  1.00  0.00    -0.247 OA
BRANCH   7   9
ATOM      9  O   UNL     1       4.591   0.063   0.493  1.00  0.00    -0.463 OA
BRANCH   9  10
ATOM     10  C   UNL     1       5.900  -0.463   0.698  1.00  0.00     0.230 C 
ATOM     11  C   UNL     1       6.456  -1.043  -0.597  1.00  0.00     0.049 C 
ENDBRANCH   9  10
ENDBRANCH   7   9
ENDBRANCH   1   7
BRANCH   3  12
ATOM     12  O   UNL     1      -1.298  -0.882   0.634  1.00  0.00    -0.369 OA
BRANCH  12  13
ATOM     13  C   UNL     1      -2.402  -1.443  -0.061  1.00  0.00     0.118 C 
BRANCH  13  14
ATOM     14  C   UNL     1      -3.619  -1.483   0.881  1.00  0.00     0.028 C 
ATOM     15  C   UNL     1      -4.116  -0.080   1.224  1.00  0.00     0.006 C 
ENDBRANCH  13  14
BRANCH  13  16
ATOM     16  C   UNL     1      -2.056  -2.856  -0.588  1.00  0.00     0.028 C 
ATOM     17  C   UNL     1      -1.604  -3.827   0.505  1.00  0.00     0.006 C 
ENDBRANCH  13  16
ENDBRANCH  12  13
ENDBRANCH   3  12
BRANCH   5  18
ATOM     18  N   UNL     1       0.713   3.369  -0.658  1.00  0.00    -0.326 NA
ATOM     19  H   UNL     1       1.539   3.783  -1.150  1.00  0.00     0.119 HD
ATOM     20  H   UNL     1       0.758   3.673   0.342  1.00  0.00     0.119 HD
ENDBRANCH   5  18
BRANCH   4  21
ATOM     21  N   UNL     1      -1.650   1.774  -0.674  1.00  0.00    -0.349 N 
ATOM     22  C   UNL     1      -2.461   2.781  -0.052  1.00  0.00     0.217 C 
ATOM     23  H   UNL     1      -1.873   1.500  -1.658  1.00  0.00     0.163 HD
ATOM     24  C   UNL     1      -3.639   3.342  -0.780  1.00  0.00     0.114 C 
ATOM     25  O   UNL     1      -2.169   3.226   1.091  1.00  0.00    -0.275 OA
ENDBRANCH   4  21
TORSDOF 9
