REMARK SMILES COc1ccc2c3c1O[C@H]1C[C@@H](O)C=C[C@@]31CCN(C)C2
REMARK SMILES IDX 21 1 6 2 10 3 11 4 16 5 9 6 12 7 15 8 7 9 8 10 14 11 3 12
REMARK SMILES IDX 5 13 4 14 17 15 13 17 2 19 1 20 19 21 20 22 18 23
REMARK H PARENT 13 18
REMARK Flexibility Score: 90.00
ROOT
ATOM      1  C   UNL     1       0.617   2.274   1.126  1.00  0.00     0.120 C 
ENDROOT
BRANCH   1   2
ATOM      2  C   UNL     1       1.303   0.991   0.747  1.00  0.00    -0.026 A 
ATOM      3  C   UNL     1      -1.055  -1.336  -0.992  1.00  0.00     0.191 C 
ATOM      4  C   UNL     1      -2.102  -2.426  -0.660  1.00  0.00     0.082 C 
ATOM      5  C   UNL     1      -0.941  -0.153   0.055  1.00  0.00     0.056 C 
ATOM      6  O   UNL     1       0.247  -1.921  -1.048  1.00  0.00    -0.485 OA
ATOM      7  C   UNL     1      -3.243  -1.870   0.203  1.00  0.00     0.140 C 
ATOM      8  C   UNL     1      -1.558  -0.529   1.395  1.00  0.00    -0.013 C 
ATOM      9  C   UNL     1       0.551  -0.064   0.220  1.00  0.00     0.016 A 
ATOM     10  C   UNL     1       1.160  -1.123  -0.395  1.00  0.00     0.166 A 
ATOM     11  C   UNL     1      -2.664  -1.282   1.461  1.00  0.00     0.001 C 
ATOM     12  C   UNL     1       2.546  -1.283  -0.398  1.00  0.00     0.161 A 
ATOM     13  C   UNL     1       2.707   0.873   0.749  1.00  0.00     0.009 A 
ATOM     14  C   UNL     1       3.325  -0.271   0.208  1.00  0.00     0.051 A 
BRANCH   5  15
ATOM     15  C   UNL     1      -1.592   1.179  -0.455  1.00  0.00     0.035 CG0
ATOM     16  G   UNL     1      -0.606   2.202  -1.072  1.00  0.00     0.000 G0
ENDBRANCH   5  15
BRANCH   7  17
ATOM     17  O   UNL     1      -4.184  -2.870   0.502  1.00  0.00    -0.389 OA
ATOM     18  H   UNL     1      -3.716  -3.583   1.012  1.00  0.00     0.211 HD
ENDBRANCH   7  17
BRANCH  12  19
ATOM     19  O   UNL     1       3.103  -2.413  -1.013  1.00  0.00    -0.493 OA
ATOM     20  C   UNL     1       4.501  -2.675  -1.084  1.00  0.00     0.278 C 
ENDBRANCH  12  19
ENDBRANCH   1   2
BRANCH   1  21
ATOM     21  N   UNL     1       0.149   3.011  -0.072  1.00  0.00    -0.302 NA
ATOM     22  C   UNL     1      -0.608   4.207   0.331  1.00  0.00     0.105 C 
BRANCH  21  23
ATOM     23  C   UNL     1      -0.606   2.202  -1.072  1.00  0.00     0.086 CG0
ATOM     24  G   UNL     1      -1.592   1.179  -0.455  1.00  0.00     0.000 G0
ENDBRANCH  21  23
ENDBRANCH   1  21
TORSDOF 2
