REMARK SMILES CC(C)(C)S(=O)(=O)C[C@@H](Cc1ccccc1)C(=O)N[C@@H](Cc1cnc[nH]1)C(=O)N[C@@H](CC1CCCCC1)[C@@H](O)[C@@H](O)C1CC1
REMARK SMILES IDX 20 1 19 2 17 3 18 4 9 6 8 7 5 8 6 9 7 10 2 11 1 12 3 13 4 14
REMARK SMILES IDX 10 15 11 16 12 17 16 18 13 19 15 20 14 21 21 22 22 23 23 24
REMARK SMILES IDX 26 25 24 26 25 27 27 29 28 30 29 31 30 33 31 34 32 35 33 36
REMARK SMILES IDX 37 37 34 38 36 39 35 40 38 41 39 42 40 44 41 45 42 47 43 48
REMARK SMILES IDX 44 49
REMARK H PARENT 19 5 26 28 29 32 39 43 41 46
REMARK Flexibility Score: inf
ROOT
ATOM      1  C   UNL     1       0.188   1.204  -1.447  1.00  0.00     0.177 C 
ENDROOT
BRANCH   1   2
ATOM      2  N   UNL     1      -1.122   0.553  -1.599  1.00  0.00    -0.344 N 
ATOM      3  C   UNL     1      -1.896   0.013  -0.511  1.00  0.00     0.225 C 
ATOM      4  O   UNL     1      -1.348  -0.167   0.610  1.00  0.00    -0.275 OA
ATOM      5  H   UNL     1      -1.499   0.467  -2.570  1.00  0.00     0.164 HD
BRANCH   3   6
ATOM      6  C   UNL     1      -3.324  -0.441  -0.745  1.00  0.00     0.098 C 
BRANCH   6   7
ATOM      7  C   UNL     1      -4.007  -1.038   0.520  1.00  0.00     0.151 C 
BRANCH   7   8
ATOM      8  S   UNL     1      -4.341   0.103   1.884  1.00  0.00     0.155 S 
ATOM      9  O   UNL     1      -5.047   1.337   1.399  1.00  0.00    -0.228 OA
ATOM     10  O   UNL     1      -3.050   0.518   2.533  1.00  0.00    -0.228 OA
BRANCH   8  11
ATOM     11  C   UNL     1      -5.380  -0.686   3.135  1.00  0.00     0.064 C 
ATOM     12  C   UNL     1      -4.696  -1.965   3.647  1.00  0.00     0.028 C 
ATOM     13  C   UNL     1      -5.575   0.290   4.309  1.00  0.00     0.028 C 
ATOM     14  C   UNL     1      -6.754  -1.036   2.534  1.00  0.00     0.028 C 
ENDBRANCH   8  11
ENDBRANCH   7   8
ENDBRANCH   6   7
BRANCH   6  15
ATOM     15  C   UNL     1      -4.170   0.646  -1.461  1.00  0.00     0.050 C 
BRANCH  15  16
ATOM     16  C   UNL     1      -5.562   0.175  -1.814  1.00  0.00    -0.047 A 
ATOM     17  C   UNL     1      -6.692   0.813  -1.273  1.00  0.00     0.004 A 
ATOM     18  C   UNL     1      -5.743  -0.891  -2.714  1.00  0.00     0.004 A 
ATOM     19  C   UNL     1      -7.978   0.369  -1.599  1.00  0.00     0.000 A 
ATOM     20  C   UNL     1      -7.031  -1.333  -3.037  1.00  0.00     0.000 A 
ATOM     21  C   UNL     1      -8.147  -0.705  -2.476  1.00  0.00     0.000 A 
ENDBRANCH  15  16
ENDBRANCH   6  15
ENDBRANCH   3   6
ENDBRANCH   1   2
BRANCH   1  22
ATOM     22  C   UNL     1       0.153   2.339  -0.402  1.00  0.00     0.090 C 
BRANCH  22  23
ATOM     23  C   UNL     1      -0.940   3.323  -0.699  1.00  0.00     0.037 A 
ATOM     24  C   UNL     1      -2.155   3.420  -0.057  1.00  0.00     0.134 A 
ATOM     25  N   UNL     1      -0.917   4.204  -1.710  1.00  0.00    -0.348 N 
ATOM     26  N   UNL     1      -2.900   4.365  -0.663  1.00  0.00    -0.245 NA
ATOM     27  C   UNL     1      -2.112   4.819  -1.663  1.00  0.00     0.196 A 
ATOM     28  H   UNL     1      -0.147   4.364  -2.397  1.00  0.00     0.167 HD
ENDBRANCH  22  23
ENDBRANCH   1  22
BRANCH   1  29
ATOM     29  C   UNL     1       1.273   0.202  -1.136  1.00  0.00     0.243 C 
ATOM     30  O   UNL     1       0.972  -0.980  -0.810  1.00  0.00    -0.273 OA
ATOM     31  N   UNL     1       2.652   0.598  -1.221  1.00  0.00    -0.349 N 
ATOM     32  H   UNL     1       2.871   1.585  -1.489  1.00  0.00     0.163 HD
BRANCH  31  33
ATOM     33  C   UNL     1       3.774  -0.299  -0.916  1.00  0.00     0.113 C 
BRANCH  33  34
ATOM     34  C   UNL     1       4.700  -0.349  -2.162  1.00  0.00     0.031 C 
BRANCH  34  35
ATOM     35  C   UNL     1       5.861  -1.383  -2.185  1.00  0.00    -0.009 C 
ATOM     36  C   UNL     1       5.496  -2.757  -1.586  1.00  0.00     0.004 C 
ATOM     37  C   UNL     1       7.174  -0.844  -1.576  1.00  0.00     0.004 C 
ATOM     38  C   UNL     1       6.645  -3.757  -1.781  1.00  0.00     0.000 C 
ATOM     39  C   UNL     1       8.315  -1.853  -1.768  1.00  0.00     0.000 C 
ATOM     40  C   UNL     1       7.950  -3.223  -1.177  1.00  0.00     0.000 C 
ENDBRANCH  34  35
ENDBRANCH  33  34
BRANCH  33  41
ATOM     41  C   UNL     1       4.490   0.175   0.375  1.00  0.00     0.165 C 
BRANCH  41  42
ATOM     42  O   UNL     1       5.148   1.394   0.126  1.00  0.00    -0.388 OA
ATOM     43  H   UNL     1       5.969   1.405   0.685  1.00  0.00     0.211 HD
ENDBRANCH  41  42
BRANCH  41  44
ATOM     44  C   UNL     1       3.510   0.344   1.562  1.00  0.00     0.148 C 
BRANCH  44  45
ATOM     45  O   UNL     1       2.784  -0.844   1.742  1.00  0.00    -0.390 OA
ATOM     46  H   UNL     1       1.995  -0.616   2.300  1.00  0.00     0.211 HD
ENDBRANCH  44  45
BRANCH  44  47
ATOM     47  C   UNL     1       4.293   0.647   2.854  1.00  0.00     0.020 C 
ATOM     48  C   UNL     1       3.488   1.330   3.950  1.00  0.00     0.007 C 
ATOM     49  C   UNL     1       4.526   2.118   3.167  1.00  0.00     0.007 C 
ENDBRANCH  44  47
ENDBRANCH  41  44
ENDBRANCH  33  41
ENDBRANCH  31  33
ENDBRANCH   1  29
TORSDOF 18
