REMARK SMILES CCC1(CC)C(=O)NC(=O)N(C)C1=O
REMARK SMILES IDX 3 1 6 2 7 3 8 4 9 5 10 6 11 7 12 8 13 9 14 10 2 12 1 13 4 14
REMARK SMILES IDX 5 15
REMARK H PARENT 8 11
REMARK Flexibility Score: inf
ROOT
ATOM      1  C   UNL     1      -0.333   0.242   0.198  1.00  0.00     0.128 C 
ATOM      2  C   UNL     1      -0.308   0.525  -1.303  1.00  0.00     0.243 C 
ATOM      3  O   UNL     1      -1.336   0.945  -1.898  1.00  0.00    -0.273 OA
ATOM      4  N   UNL     1       0.852   0.226  -2.078  1.00  0.00    -0.277 N 
ATOM      5  C   UNL     1       2.118   0.060  -1.449  1.00  0.00     0.330 C 
ATOM      6  O   UNL     1       3.114  -0.287  -2.139  1.00  0.00    -0.248 OA
ATOM      7  N   UNL     1       2.253   0.320  -0.044  1.00  0.00    -0.266 N 
ATOM      8  C   UNL     1       3.578   0.285   0.586  1.00  0.00     0.158 C 
ATOM      9  C   UNL     1       1.070   0.493   0.765  1.00  0.00     0.246 C 
ATOM     10  O   UNL     1       1.205   0.739   1.997  1.00  0.00    -0.273 OA
ATOM     11  H   UNL     1       0.785   0.193  -3.121  1.00  0.00     0.174 HD
ENDROOT
BRANCH   1  12
ATOM     12  C   UNL     1      -0.660  -1.263   0.480  1.00  0.00     0.023 C 
ATOM     13  C   UNL     1      -1.635  -1.937  -0.498  1.00  0.00     0.005 C 
ENDBRANCH   1  12
BRANCH   1  14
ATOM     14  C   UNL     1      -1.330   1.213   0.932  1.00  0.00     0.023 C 
ATOM     15  C   UNL     1      -2.828   0.936   0.757  1.00  0.00     0.005 C 
ENDBRANCH   1  14
TORSDOF 2
