REMARK SMILES CCN(CC)C(C)C(=O)c1ccccc1
REMARK SMILES IDX 6 1 7 2 3 3 2 4 1 5 4 6 5 7 8 8 9 9 10 10 11 11 15 12 12 13
REMARK SMILES IDX 14 14 13 15
REMARK H PARENT
REMARK Flexibility Score: inf
ROOT
ATOM      1  C   UNL     1      -0.195  -0.853  -0.343  1.00  0.00     0.126 C 
ATOM      2  C   UNL     1      -0.222  -2.359  -0.039  1.00  0.00     0.033 C 
ENDROOT
BRANCH   1   3
ATOM      3  N   UNL     1      -1.564  -0.270  -0.434  1.00  0.00    -0.294 NA
BRANCH   3   4
ATOM      4  C   UNL     1      -2.421  -0.451   0.767  1.00  0.00     0.082 C 
ATOM      5  C   UNL     1      -3.614  -1.332   0.417  1.00  0.00     0.021 C 
ENDBRANCH   3   4
BRANCH   3   6
ATOM      6  C   UNL     1      -1.530   1.134  -0.907  1.00  0.00     0.082 C 
ATOM      7  C   UNL     1      -2.840   1.511  -1.596  1.00  0.00     0.021 C 
ENDBRANCH   3   6
ENDBRANCH   1   3
BRANCH   1   8
ATOM      8  C   UNL     1       0.713  -0.111   0.627  1.00  0.00     0.179 C 
ATOM      9  O   UNL     1       0.295   0.156   1.787  1.00  0.00    -0.292 OA
BRANCH   8  10
ATOM     10  C   UNL     1       2.088   0.311   0.253  1.00  0.00     0.019 A 
ATOM     11  C   UNL     1       2.670   1.425   0.888  1.00  0.00     0.012 A 
ATOM     12  C   UNL     1       2.841  -0.390  -0.710  1.00  0.00     0.012 A 
ATOM     13  C   UNL     1       3.964   1.838   0.554  1.00  0.00     0.001 A 
ATOM     14  C   UNL     1       4.135   0.027  -1.039  1.00  0.00     0.001 A 
ATOM     15  C   UNL     1       4.695   1.140  -0.410  1.00  0.00     0.000 A 
ENDBRANCH   8  10
ENDBRANCH   1   8
TORSDOF 5
