REMARK SMILES Nc1ccc(C(=O)O)c(O)c1
REMARK SMILES IDX 2 1 11 2 9 3 5 4 4 5 3 6 1 7 10 10 6 12 7 13 8 14
REMARK H PARENT 1 8 1 9 10 11 8 15
REMARK Flexibility Score: inf
ROOT
ATOM      1  C   UNL     1      -1.762  -0.074   0.104  1.00  0.00     0.035 A 
ATOM      2  C   UNL     1      -0.937   1.053   0.194  1.00  0.00     0.072 A 
ATOM      3  C   UNL     1       0.459   0.914   0.248  1.00  0.00     0.132 A 
ATOM      4  C   UNL     1       1.043  -0.373   0.210  1.00  0.00     0.101 A 
ATOM      5  C   UNL     1       0.199  -1.498   0.119  1.00  0.00     0.022 A 
ATOM      6  C   UNL     1      -1.188  -1.348   0.067  1.00  0.00     0.026 A 
ENDROOT
BRANCH   1   7
ATOM      7  N   UNL     1      -3.184   0.077   0.050  1.00  0.00    -0.399 N 
ATOM      8  H   UNL     1      -3.622   1.024   0.077  1.00  0.00     0.156 HD
ATOM      9  H   UNL     1      -3.808  -0.758  -0.017  1.00  0.00     0.156 HD
ENDBRANCH   1   7
BRANCH   3  10
ATOM     10  O   UNL     1       1.254   2.056   0.337  1.00  0.00    -0.507 OA
ATOM     11  H   UNL     1       0.851   2.986   0.365  1.00  0.00     0.293 HD
ENDBRANCH   3  10
BRANCH   4  12
ATOM     12  C   UNL     1       2.516  -0.565   0.264  1.00  0.00     0.339 C 
ATOM     13  O   UNL     1       3.005  -1.727   0.229  1.00  0.00    -0.246 OA
BRANCH  12  14
ATOM     14  O   UNL     1       3.377   0.525   0.354  1.00  0.00    -0.478 OA
ATOM     15  H   UNL     1       4.381   0.394   0.391  1.00  0.00     0.297 HD
ENDBRANCH  12  14
ENDBRANCH   4  12
TORSDOF 4
