REMARK SMILES Nc1c(CC(=O)O)cccc1C(=O)c1ccc(Br)cc1
REMARK SMILES IDX 2 1 3 2 8 3 9 4 10 5 11 6 1 7 4 10 5 11 6 12 7 13 12 15
REMARK SMILES IDX 13 16 14 17 15 18 20 19 16 20 19 21 17 22 18 23
REMARK H PARENT 1 8 1 9 7 14
REMARK Flexibility Score: inf
ROOT
ATOM      1  C   UNL     1      -1.221  -1.026   0.025  1.00  0.00     0.047 A 
ATOM      2  C   UNL     1      -2.401  -0.675   0.735  1.00  0.00    -0.013 A 
ATOM      3  C   UNL     1      -2.293  -0.009   1.968  1.00  0.00     0.006 A 
ATOM      4  C   UNL     1      -1.046   0.288   2.510  1.00  0.00     0.001 A 
ATOM      5  C   UNL     1       0.115  -0.075   1.834  1.00  0.00     0.014 A 
ATOM      6  C   UNL     1       0.045  -0.730   0.595  1.00  0.00     0.046 A 
ENDROOT
BRANCH   1   7
ATOM      7  N   UNL     1      -1.299  -1.629  -1.280  1.00  0.00    -0.398 N 
ATOM      8  H   UNL     1      -0.461  -1.713  -1.895  1.00  0.00     0.156 HD
ATOM      9  H   UNL     1      -2.198  -1.952  -1.694  1.00  0.00     0.156 HD
ENDBRANCH   1   7
BRANCH   2  10
ATOM     10  C   UNL     1      -3.785  -0.942   0.187  1.00  0.00     0.160 C 
BRANCH  10  11
ATOM     11  C   UNL     1      -4.135   0.061  -0.868  1.00  0.00     0.307 C 
ATOM     12  O   UNL     1      -4.366  -0.316  -2.048  1.00  0.00    -0.252 OA
BRANCH  11  13
ATOM     13  O   UNL     1      -4.213   1.411  -0.542  1.00  0.00    -0.481 OA
ATOM     14  H   UNL     1      -4.450   2.102  -1.244  1.00  0.00     0.296 HD
ENDBRANCH  11  13
ENDBRANCH  10  11
ENDBRANCH   2  10
BRANCH   6  15
ATOM     15  C   UNL     1       1.309  -1.140  -0.057  1.00  0.00     0.195 C 
ATOM     16  O   UNL     1       1.465  -2.353  -0.366  1.00  0.00    -0.289 OA
BRANCH  15  17
ATOM     17  C   UNL     1       2.404  -0.171  -0.324  1.00  0.00     0.023 A 
ATOM     18  C   UNL     1       2.152   1.214  -0.374  1.00  0.00     0.013 A 
ATOM     19  C   UNL     1       3.713  -0.631  -0.557  1.00  0.00     0.013 A 
ATOM     20  C   UNL     1       3.189   2.114  -0.634  1.00  0.00     0.016 A 
ATOM     21  C   UNL     1       4.747   0.273  -0.817  1.00  0.00     0.016 A 
ATOM     22  C   UNL     1       4.487   1.646  -0.854  1.00  0.00     0.018 A 
ATOM     23  Br  UNL     1       5.902   2.878  -1.210  1.00  0.00    -0.051 Br
ENDBRANCH  15  17
ENDBRANCH   6  15
TORSDOF 6
