REMARK SMILES O=[N+]([O-])OCC(CO[N+](=O)[O-])O[N+](=O)[O-]
REMARK SMILES IDX 6 1 5 2 4 3 2 4 3 5 1 6 7 7 8 8 9 9 11 10 10 11 12 12 13 13
REMARK SMILES IDX 15 14 14 15
REMARK H PARENT
REMARK Flexibility Score: inf
ROOT
ATOM      1  C   UNL     1      -0.248   0.489  -0.396  1.00  0.00     0.218 C 
ENDROOT
BRANCH   1   2
ATOM      2  C   UNL     1       1.279   0.617  -0.303  1.00  0.00     0.241 C 
BRANCH   2   3
ATOM      3  O   UNL     1       1.764  -0.066   0.850  1.00  0.00    -0.311 OA
BRANCH   3   4
ATOM      4  N   UNL     1       3.107  -0.103   1.167  1.00  0.00     0.294 N 
ATOM      5  O   UNL     1       3.517  -0.778   2.292  1.00  0.00    -0.109 OA
ATOM      6  O   UNL     1       3.955   0.466   0.448  1.00  0.00    -0.109 OA
ENDBRANCH   3   4
ENDBRANCH   2   3
ENDBRANCH   1   2
BRANCH   1   7
ATOM      7  C   UNL     1      -0.664  -0.967  -0.621  1.00  0.00     0.241 C 
BRANCH   7   8
ATOM      8  O   UNL     1      -2.078  -1.043  -0.767  1.00  0.00    -0.311 OA
BRANCH   8   9
ATOM      9  N   UNL     1      -2.729  -2.243  -0.982  1.00  0.00     0.294 N 
ATOM     10  O   UNL     1      -4.096  -2.255  -1.116  1.00  0.00    -0.109 OA
ATOM     11  O   UNL     1      -2.093  -3.315  -1.056  1.00  0.00    -0.109 OA
ENDBRANCH   8   9
ENDBRANCH   7   8
ENDBRANCH   1   7
BRANCH   1  12
ATOM     12  O   UNL     1      -0.858   0.972   0.802  1.00  0.00    -0.306 OA
BRANCH  12  13
ATOM     13  N   UNL     1      -0.948   2.317   1.105  1.00  0.00     0.294 N 
ATOM     14  O   UNL     1      -1.510   2.703   2.298  1.00  0.00    -0.109 OA
ATOM     15  O   UNL     1      -0.569   3.189   0.295  1.00  0.00    -0.109 OA
ENDBRANCH  12  13
ENDBRANCH   1  12
TORSDOF 8
