REMARK SMILES COc1c(N2C[C@@H]3CCCN[C@@H]3C2)c(F)cc2c(=O)c(C(=O)O)cn(C3CC3)c12
REMARK SMILES IDX 4 1 14 2 15 3 16 4 17 5 18 6 19 7 20 8 24 9 25 10 29 11 3 12
REMARK SMILES IDX 5 13 7 14 6 15 12 16 8 17 13 18 11 19 9 20 10 21 2 23 1 24
REMARK SMILES IDX 26 25 27 26 28 27 21 28 22 29 23 30
REMARK H PARENT 11 22 23 31
REMARK Flexibility Score: inf
ROOT
ATOM      1  C   UNL     1       0.124   0.274   0.616  1.00  0.00     0.118 A 
ATOM      2  C   UNL     1      -0.056   0.858   1.871  1.00  0.00     0.151 A 
ATOM      3  F   UNL     1       1.014   1.123   2.663  1.00  0.00    -0.205 F 
ATOM      4  C   UNL     1      -1.317   1.248   2.291  1.00  0.00     0.056 A 
ATOM      5  C   UNL     1      -2.440   1.055   1.471  1.00  0.00     0.053 A 
ATOM      6  C   UNL     1      -3.698   1.541   1.875  1.00  0.00     0.204 A 
ATOM      7  O   UNL     1      -3.822   2.119   2.990  1.00  0.00    -0.288 OA
ATOM      8  C   UNL     1      -4.809   1.400   1.030  1.00  0.00     0.124 A 
ATOM      9  C   UNL     1      -4.644   0.703  -0.172  1.00  0.00     0.106 A 
ATOM     10  N   UNL     1      -3.451   0.128  -0.519  1.00  0.00    -0.340 N 
ATOM     11  C   UNL     1      -2.307   0.388   0.221  1.00  0.00     0.097 A 
ATOM     12  C   UNL     1      -0.992   0.027  -0.222  1.00  0.00     0.169 A 
ENDROOT
BRANCH   1  13
ATOM     13  N   UNL     1       1.463   0.055   0.154  1.00  0.00    -0.364 N 
ATOM     14  C   UNL     1       3.629  -0.877  -0.100  1.00  0.00     0.027 C 
ATOM     15  C   UNL     1       2.324  -0.983   0.691  1.00  0.00     0.122 C 
ATOM     16  C   UNL     1       3.584   0.481  -0.844  1.00  0.00     0.077 C 
ATOM     17  C   UNL     1       4.880  -1.034   0.786  1.00  0.00     0.008 C 
ATOM     18  C   UNL     1       2.146   0.994  -0.716  1.00  0.00     0.136 C 
ATOM     19  N   UNL     1       4.540   1.452  -0.285  1.00  0.00    -0.312 NA
ATOM     20  C   UNL     1       6.111  -0.497   0.056  1.00  0.00     0.016 C 
ATOM     21  C   UNL     1       5.927   0.969  -0.403  1.00  0.00     0.081 C 
ATOM     22  H   UNL     1       4.324   1.621   0.726  1.00  0.00     0.123 HD
ENDBRANCH   1  13
BRANCH  12  23
ATOM     23  O   UNL     1      -0.809  -0.508  -1.509  1.00  0.00    -0.492 OA
ATOM     24  C   UNL     1       0.033  -1.618  -1.819  1.00  0.00     0.278 C 
ENDBRANCH  12  23
BRANCH  10  25
ATOM     25  C   UNL     1      -3.459  -0.734  -1.717  1.00  0.00     0.087 C 
ATOM     26  C   UNL     1      -4.582  -1.775  -1.759  1.00  0.00     0.027 C 
ATOM     27  C   UNL     1      -3.170  -2.206  -1.431  1.00  0.00     0.027 C 
ENDBRANCH  10  25
BRANCH   8  28
ATOM     28  C   UNL     1      -6.147   1.949   1.386  1.00  0.00     0.341 C 
ATOM     29  O   UNL     1      -7.125   1.796   0.604  1.00  0.00    -0.246 OA
BRANCH  28  30
ATOM     30  O   UNL     1      -6.344   2.637   2.580  1.00  0.00    -0.477 OA
ATOM     31  H   UNL     1      -7.255   3.008   2.823  1.00  0.00     0.297 HD
ENDBRANCH  28  30
ENDBRANCH   8  28
TORSDOF 5
