REMARK SMILES CN(C)Cc1nnc2n1-c1ccc(Cl)cc1C(c1ccccc1)=NC2
REMARK SMILES IDX 5 1 6 2 7 3 8 4 25 5 24 6 17 7 16 8 10 9 11 10 12 11 13 12
REMARK SMILES IDX 14 13 15 14 9 15 4 16 2 17 1 18 3 19 18 20 19 21 23 22 20 23
REMARK SMILES IDX 22 24 21 25
REMARK H PARENT
REMARK Flexibility Score: inf
ROOT
ATOM      1  C   UNL     1      -2.346   0.341   1.837  1.00  0.00     0.151 A 
ATOM      2  N   UNL     1      -2.528   1.250   2.817  1.00  0.00    -0.134 NA
ATOM      3  N   UNL     1      -1.407   1.295   3.522  1.00  0.00    -0.133 NA
ATOM      4  C   UNL     1      -0.564   0.403   2.967  1.00  0.00     0.159 A 
ATOM      5  C   UNL     1       0.873   0.256   3.329  1.00  0.00     0.220 C 
ATOM      6  N   UNL     1       1.679   0.708   2.202  1.00  0.00    -0.276 NA
ATOM      7  C   UNL     1       1.687   0.183   1.006  1.00  0.00     0.075 C 
ATOM      8  C   UNL     1       0.875  -1.029   0.661  1.00  0.00     0.026 A 
ATOM      9  C   UNL     1      -0.477  -1.188   1.067  1.00  0.00     0.058 A 
ATOM     10  C   UNL     1      -1.178  -2.347   0.694  1.00  0.00     0.029 A 
ATOM     11  C   UNL     1      -0.573  -3.323  -0.096  1.00  0.00     0.023 A 
ATOM     12  C   UNL     1       0.750  -3.167  -0.507  1.00  0.00     0.041 A 
ATOM     13  Cl  UNL     1       1.513  -4.402  -1.493  1.00  0.00    -0.084 Cl
ATOM     14  C   UNL     1       1.471  -2.034  -0.126  1.00  0.00     0.033 A 
ATOM     15  N   UNL     1      -1.116  -0.214   1.912  1.00  0.00    -0.280 N 
ENDROOT
BRANCH   1  16
ATOM     16  C   UNL     1      -3.358   0.097   0.751  1.00  0.00     0.162 C 
BRANCH  16  17
ATOM     17  N   UNL     1      -2.718   0.107  -0.581  1.00  0.00    -0.302 NA
ATOM     18  C   UNL     1      -2.336   1.475  -0.975  1.00  0.00     0.105 C 
ATOM     19  C   UNL     1      -3.631  -0.461  -1.584  1.00  0.00     0.105 C 
ENDBRANCH  16  17
ENDBRANCH   1  16
BRANCH   7  20
ATOM     20  C   UNL     1       2.543   0.819  -0.028  1.00  0.00     0.000 A 
ATOM     21  C   UNL     1       3.753   1.441   0.332  1.00  0.00     0.010 A 
ATOM     22  C   UNL     1       2.141   0.841  -1.378  1.00  0.00     0.010 A 
ATOM     23  C   UNL     1       4.551   2.052  -0.640  1.00  0.00     0.001 A 
ATOM     24  C   UNL     1       2.943   1.454  -2.345  1.00  0.00     0.001 A 
ATOM     25  C   UNL     1       4.148   2.057  -1.977  1.00  0.00     0.000 A 
ENDBRANCH   7  20
TORSDOF 3
