REMARK SMILES CCCC(C)C1(CC)C(=O)NC(=S)NC1=O
REMARK SMILES IDX 4 1 5 2 3 3 2 4 1 5 6 6 9 7 15 8 10 9 11 10 14 11 16 12
REMARK SMILES IDX 12 13 13 16 7 17 8 18
REMARK H PARENT 11 14 14 15
REMARK Flexibility Score: inf
ROOT
ATOM      1  C   UNL     1       0.705   0.465   0.267  1.00  0.00     0.011 C 
ATOM      2  C   UNL     1       0.813   1.653  -0.720  1.00  0.00     0.009 C 
ENDROOT
BRANCH   1   3
ATOM      3  C   UNL     1       1.573  -0.729  -0.228  1.00  0.00     0.004 C 
BRANCH   3   4
ATOM      4  C   UNL     1       3.067  -0.382  -0.359  1.00  0.00    -0.003 C 
ATOM      5  C   UNL     1       3.906  -1.631  -0.618  1.00  0.00     0.004 C 
ENDBRANCH   3   4
ENDBRANCH   1   3
BRANCH   1   6
ATOM      6  C   UNL     1      -0.804   0.091   0.566  1.00  0.00     0.131 C 
ATOM      7  C   UNL     1      -1.519  -0.283  -0.734  1.00  0.00     0.242 C 
ATOM      8  C   UNL     1      -1.455   1.302   1.240  1.00  0.00     0.242 C 
ATOM      9  O   UNL     1      -1.292  -1.401  -1.272  1.00  0.00    -0.273 OA
ATOM     10  N   UNL     1      -2.419   0.616  -1.386  1.00  0.00    -0.302 N 
ATOM     11  N   UNL     1      -2.423   2.115   0.571  1.00  0.00    -0.302 N 
ATOM     12  O   UNL     1      -1.092   1.630   2.403  1.00  0.00    -0.273 OA
ATOM     13  C   UNL     1      -2.865   1.809  -0.748  1.00  0.00     0.179 C 
ATOM     14  H   UNL     1      -2.796   0.363  -2.328  1.00  0.00     0.172 HD
ATOM     15  H   UNL     1      -2.798   2.961   1.057  1.00  0.00     0.172 HD
ATOM     16  S   UNL     1      -3.919   2.802  -1.511  1.00  0.00    -0.040 S 
BRANCH   6  17
ATOM     17  C   UNL     1      -0.904  -1.115   1.560  1.00  0.00     0.024 C 
ATOM     18  C   UNL     1      -2.333  -1.419   2.036  1.00  0.00     0.005 C 
ENDBRANCH   6  17
ENDBRANCH   1   6
TORSDOF 4
