REMARK SMILES CN(C)CCOC(c1ccccc1)c1ccccc1.Cn1c(=O)c2nc(Cl)[nH]c2n(C)c1=O
REMARK SMILES IDX 31 1 30 2 29 3 24 4 25 5 26 6 27 7 28 8 22 9 23 10 21 11
REMARK SMILES IDX 20 12 32 13 33 14
REMARK H PARENT 28 15
REMARK Flexibility Score: inf
ROOT
ATOM      1  C   UNL     1       0.513   2.398   0.580  1.00  0.00     0.157 C 
ATOM      2  N   UNL     1       0.127   1.012   0.282  1.00  0.00    -0.281 N 
ATOM      3  C   UNL     1       1.075   0.100  -0.068  1.00  0.00     0.148 A 
ATOM      4  C   UNL     1       0.776  -1.180  -0.379  1.00  0.00     0.173 A 
ATOM      5  N   UNL     1       1.887  -1.863  -0.707  1.00  0.00    -0.210 NA
ATOM      6  C   UNL     1       2.858  -0.922  -0.573  1.00  0.00     0.202 A 
ATOM      7  Cl  UNL     1       4.550  -1.248  -0.884  1.00  0.00    -0.043 Cl
ATOM      8  N   UNL     1       2.397   0.292  -0.186  1.00  0.00    -0.314 N 
ATOM      9  C   UNL     1      -0.536  -1.618  -0.352  1.00  0.00     0.284 A 
ATOM     10  O   UNL     1      -0.811  -2.809  -0.665  1.00  0.00    -0.267 OA
ATOM     11  N   UNL     1      -1.517  -0.723   0.012  1.00  0.00    -0.261 N 
ATOM     12  C   UNL     1      -2.928  -1.143   0.021  1.00  0.00     0.159 C 
ATOM     13  C   UNL     1      -1.188   0.592   0.301  1.00  0.00     0.332 A 
ATOM     14  O   UNL     1      -2.104   1.418   0.578  1.00  0.00    -0.247 OA
ATOM     15  H   UNL     1       2.950   1.164  -0.028  1.00  0.00     0.171 HD
ENDROOT
TORSDOF 0
