REMARK SMILES CCNC(C)Cc1cccc(C(F)(F)F)c1
REMARK SMILES IDX 4 1 5 2 3 3 2 5 1 6 6 7 7 8 8 9 16 10 9 11 11 12 10 13 12 14
REMARK SMILES IDX 13 15 14 16 15 17
REMARK H PARENT 3 4
REMARK Flexibility Score: inf
ROOT
ATOM      1  C   UNL     1       1.394  -0.271  -0.540  1.00  0.00     0.054 C 
ATOM      2  C   UNL     1       1.335  -0.224  -2.070  1.00  0.00     0.024 C 
ENDROOT
BRANCH   1   3
ATOM      3  N   UNL     1       2.780  -0.578  -0.135  1.00  0.00    -0.314 NA
ATOM      4  H   UNL     1       2.925  -1.615  -0.123  1.00  0.00     0.122 HD
BRANCH   3   5
ATOM      5  C   UNL     1       3.123  -0.027   1.185  1.00  0.00     0.078 C 
ATOM      6  C   UNL     1       3.693   1.379   1.038  1.00  0.00     0.020 C 
ENDBRANCH   3   5
ENDBRANCH   1   3
BRANCH   1   7
ATOM      7  C   UNL     1       0.400  -1.316   0.025  1.00  0.00     0.054 C 
BRANCH   7   8
ATOM      8  C   UNL     1      -1.034  -0.889  -0.163  1.00  0.00    -0.046 A 
ATOM      9  C   UNL     1      -1.805  -1.423  -1.206  1.00  0.00     0.004 A 
ATOM     10  C   UNL     1      -1.598   0.079   0.685  1.00  0.00     0.016 A 
ATOM     11  C   UNL     1      -3.120  -0.996  -1.399  1.00  0.00     0.001 A 
ATOM     12  C   UNL     1      -2.930   0.495   0.514  1.00  0.00     0.056 A 
ATOM     13  C   UNL     1      -3.679  -0.037  -0.551  1.00  0.00     0.013 A 
BRANCH  12  14
ATOM     14  C   UNL     1      -3.513   1.570   1.396  1.00  0.00     0.416 C 
ATOM     15  F   UNL     1      -4.886   1.430   1.499  1.00  0.00    -0.166 F 
ATOM     16  F   UNL     1      -3.226   2.808   0.854  1.00  0.00    -0.166 F 
ATOM     17  F   UNL     1      -2.975   1.499   2.670  1.00  0.00    -0.166 F 
ENDBRANCH  12  14
ENDBRANCH   7   8
ENDBRANCH   1   7
TORSDOF 5
