REMARK SMILES O=C(O)CCCCCCCC(=O)O
REMARK SMILES IDX 7 1 6 2 5 3 4 4 2 5 1 6 3 7 8 9 9 10 10 11 11 12 12 13 13 14
REMARK H PARENT 3 8 13 15
REMARK Flexibility Score: inf
ROOT
ATOM      1  C   UNL     1       0.075  -0.226  -0.372  1.00  0.00     0.000 C 
ENDROOT
BRANCH   1   2
ATOM      2  C   UNL     1      -1.426   0.079  -0.240  1.00  0.00     0.001 C 
BRANCH   2   3
ATOM      3  C   UNL     1      -2.032  -0.480   1.060  1.00  0.00     0.012 C 
BRANCH   3   4
ATOM      4  C   UNL     1      -3.544  -0.228   1.148  1.00  0.00     0.122 C 
BRANCH   4   5
ATOM      5  C   UNL     1      -4.305  -1.049   0.153  1.00  0.00     0.303 C 
ATOM      6  O   UNL     1      -4.510  -2.273   0.370  1.00  0.00    -0.252 OA
BRANCH   5   7
ATOM      7  O   UNL     1      -4.761  -0.466  -1.024  1.00  0.00    -0.481 OA
ATOM      8  H   UNL     1      -5.267  -1.011  -1.712  1.00  0.00     0.296 HD
ENDBRANCH   5   7
ENDBRANCH   4   5
ENDBRANCH   3   4
ENDBRANCH   2   3
ENDBRANCH   1   2
BRANCH   1   9
ATOM      9  C   UNL     1       0.940   0.652   0.550  1.00  0.00     0.001 C 
BRANCH   9  10
ATOM     10  C   UNL     1       2.440   0.345   0.419  1.00  0.00     0.012 C 
BRANCH  10  11
ATOM     11  C   UNL     1       3.041   0.873  -0.891  1.00  0.00     0.122 C 
BRANCH  11  12
ATOM     12  C   UNL     1       4.521   0.660  -0.909  1.00  0.00     0.303 C 
ATOM     13  O   UNL     1       5.294   1.558  -0.480  1.00  0.00    -0.252 OA
BRANCH  12  14
ATOM     14  O   UNL     1       5.042  -0.550  -1.358  1.00  0.00    -0.481 OA
ATOM     15  H   UNL     1       6.041  -0.716  -1.361  1.00  0.00     0.296 HD
ENDBRANCH  12  14
ENDBRANCH  11  12
ENDBRANCH  10  11
ENDBRANCH   9  10
ENDBRANCH   1   9
TORSDOF 10
