REMARK SMILES NC(N)=NN=Cc1c(Cl)cccc1Cl
REMARK SMILES IDX 5 1 6 2 4 3 1 4 2 5 3 8 7 11 8 12 13 13 9 14 10 15 12 16
REMARK SMILES IDX 14 17 11 18
REMARK H PARENT 1 6 1 7 3 9 3 10
REMARK Flexibility Score: inf
ROOT
ATOM      1  N   UNL     1       0.967   0.647   0.983  1.00  0.00    -0.155 NA
ATOM      2  C   UNL     1       0.275   0.558  -0.112  1.00  0.00     0.147 C 
ENDROOT
BRANCH   1   3
ATOM      3  N   UNL     1       2.365   0.807   0.985  1.00  0.00    -0.115 NA
ATOM      4  N   UNL     1       2.771  -1.205  -0.239  1.00  0.00    -0.369 N 
ATOM      5  C   UNL     1       3.203   0.011   0.384  1.00  0.00     0.211 C 
ATOM      6  H   UNL     1       3.456  -1.789  -0.769  1.00  0.00     0.159 HD
ATOM      7  H   UNL     1       1.810  -1.588  -0.104  1.00  0.00     0.159 HD
ATOM      8  N   UNL     1       4.594   0.331   0.399  1.00  0.00    -0.369 N 
ATOM      9  H   UNL     1       4.933   1.203   0.864  1.00  0.00     0.159 HD
ATOM     10  H   UNL     1       5.289  -0.301  -0.056  1.00  0.00     0.159 HD
ENDBRANCH   1   3
BRANCH   2  11
ATOM     11  C   UNL     1      -1.190   0.328  -0.083  1.00  0.00     0.032 A 
ATOM     12  C   UNL     1      -2.011   0.840   0.954  1.00  0.00     0.051 A 
ATOM     13  C   UNL     1      -1.794  -0.413  -1.127  1.00  0.00     0.051 A 
ATOM     14  Cl  UNL     1      -1.388   1.854   2.254  1.00  0.00    -0.084 Cl
ATOM     15  C   UNL     1      -3.389   0.592   0.943  1.00  0.00     0.021 A 
ATOM     16  C   UNL     1      -3.173  -0.648  -1.117  1.00  0.00     0.021 A 
ATOM     17  Cl  UNL     1      -0.854  -1.104  -2.448  1.00  0.00    -0.084 Cl
ATOM     18  C   UNL     1      -3.966  -0.150  -0.085  1.00  0.00     0.003 A 
ENDBRANCH   2  11
TORSDOF 2
