REMARK SMILES CC(=O)/N=c1/sc(S(N)(=O)=O)nn1C
REMARK SMILES IDX 14 1 13 2 12 3 7 4 6 5 5 6 4 7 8 8 10 9 11 10 9 11 2 14 1 15
REMARK SMILES IDX 3 16
REMARK H PARENT 9 12 9 13
REMARK Flexibility Score: inf
ROOT
ATOM      1  C   UNL     1      -0.953  -1.100   1.481  1.00  0.00     0.177 C 
ATOM      2  N   UNL     1      -0.037  -0.395   0.586  1.00  0.00    -0.240 N 
ATOM      3  N   UNL     1       1.260  -0.333   0.891  1.00  0.00    -0.146 NA
ATOM      4  C   UNL     1       1.976   0.432   0.042  1.00  0.00     0.247 A 
ATOM      5  S   UNL     1       1.006   1.097  -1.158  1.00  0.00    -0.062 S 
ATOM      6  C   UNL     1      -0.352   0.319  -0.539  1.00  0.00     0.211 A 
ATOM      7  N   UNL     1      -1.529   0.457  -1.085  1.00  0.00    -0.184 NA
ENDROOT
BRANCH   4   8
ATOM      8  S   UNL     1       3.700   0.705   0.195  1.00  0.00     0.267 S 
ATOM      9  O   UNL     1       4.200   0.049   1.451  1.00  0.00    -0.205 OA
ATOM     10  O   UNL     1       3.969   2.181   0.271  1.00  0.00    -0.205 OA
BRANCH   8  11
ATOM     11  N   UNL     1       4.524   0.029  -1.166  1.00  0.00    -0.223 NA
ATOM     12  H   UNL     1       4.248  -0.977  -1.222  1.00  0.00     0.137 HD
ATOM     13  H   UNL     1       4.140   0.495  -2.019  1.00  0.00     0.137 HD
ENDBRANCH   8  11
ENDBRANCH   4   8
BRANCH   7  14
ATOM     14  C   UNL     1      -2.746  -0.239  -0.801  1.00  0.00     0.245 C 
ATOM     15  C   UNL     1      -4.033   0.515  -0.771  1.00  0.00     0.117 C 
ATOM     16  O   UNL     1      -2.763  -1.497  -0.742  1.00  0.00    -0.273 OA
ENDBRANCH   7  14
TORSDOF 3
