REMARK SMILES C[C@@H]1C[C@H]2[C@@H]3C[C@H](F)C4=CC(=O)C=C[C@]4(C)[C@@]3(F)[C@@H](O)C[C@]2(C)[C@@]1(O)C(=O)CO
REMARK SMILES IDX 26 1 27 2 24 3 4 4 3 5 22 6 5 7 2 8 23 9 21 10 17 11 6 12
REMARK SMILES IDX 1 13 19 14 18 15 15 16 7 17 9 18 14 19 16 20 8 21 10 22
REMARK SMILES IDX 13 23 11 24 12 25 25 26 20 28 28 30 29 31
REMARK H PARENT 25 27 20 29 29 32
REMARK Flexibility Score: inf
ROOT
ATOM      1  C   UNL     1       3.946  -1.152  -0.035  1.00  0.00     0.190 C 
ATOM      2  O   UNL     1       3.804  -2.366  -0.078  1.00  0.00    -0.294 OA
ENDROOT
BRANCH   1   3
ATOM      3  C   UNL     1       2.800  -0.302   0.551  1.00  0.00     0.133 C 
ATOM      4  C   UNL     1       0.629   0.671   0.304  1.00  0.00     0.005 C 
ATOM      5  C   UNL     1       1.577   1.838   0.074  1.00  0.00     0.011 C 
ATOM      6  C   UNL     1       1.421  -0.562  -0.159  1.00  0.00     0.010 C 
ATOM      7  C   UNL     1      -0.816   0.751  -0.259  1.00  0.00     0.037 C 
ATOM      8  C   UNL     1       2.984   1.253   0.361  1.00  0.00     0.026 C 
ATOM      9  C   UNL     1       1.650  -0.602  -1.713  1.00  0.00     0.015 C 
ATOM     10  C   UNL     1       0.647  -1.829   0.312  1.00  0.00     0.045 C 
ATOM     11  C   UNL     1      -1.618  -0.517   0.215  1.00  0.00     0.152 C 
ATOM     12  C   UNL     1      -1.502   2.047   0.230  1.00  0.00     0.049 C 
ATOM     13  C   UNL     1       3.645   1.953   1.562  1.00  0.00     0.011 C 
ATOM     14  C   UNL     1      -0.846  -1.853  -0.122  1.00  0.00     0.154 C 
ATOM     15  F   UNL     1      -1.653  -0.466   1.607  1.00  0.00    -0.239 F 
ATOM     16  C   UNL     1      -3.136  -0.473  -0.242  1.00  0.00     0.047 C 
ATOM     17  C   UNL     1      -2.958   2.132  -0.228  1.00  0.00     0.194 C 
ATOM     18  C   UNL     1      -3.706   0.888   0.203  1.00  0.00    -0.020 C 
ATOM     19  C   UNL     1      -3.885  -1.654   0.381  1.00  0.00    -0.009 C 
ATOM     20  C   UNL     1      -3.355  -0.579  -1.771  1.00  0.00     0.024 C 
ATOM     21  F   UNL     1      -3.518   3.290   0.289  1.00  0.00    -0.243 F 
ATOM     22  C   UNL     1      -4.843   0.989   0.916  1.00  0.00     0.055 C 
ATOM     23  C   UNL     1      -5.002  -1.525   1.095  1.00  0.00     0.048 C 
ATOM     24  C   UNL     1      -5.553  -0.203   1.377  1.00  0.00     0.178 C 
ATOM     25  O   UNL     1      -6.625  -0.090   2.027  1.00  0.00    -0.290 OA
BRANCH   3  26
ATOM     26  O   UNL     1       2.695  -0.571   1.938  1.00  0.00    -0.381 OA
ATOM     27  H   UNL     1       2.780  -1.548   2.092  1.00  0.00     0.212 HD
ENDBRANCH   3  26
BRANCH  14  28
ATOM     28  O   UNL     1      -0.968  -2.286  -1.453  1.00  0.00    -0.390 OA
ATOM     29  H   UNL     1      -0.883  -1.504  -2.047  1.00  0.00     0.211 HD
ENDBRANCH  14  28
ENDBRANCH   1   3
BRANCH   1  30
ATOM     30  C   UNL     1       5.221  -0.559  -0.584  1.00  0.00     0.234 C 
BRANCH  30  31
ATOM     31  O   UNL     1       6.192  -1.557  -0.752  1.00  0.00    -0.388 OA
ATOM     32  H   UNL     1       6.992  -1.104  -1.126  1.00  0.00     0.211 HD
ENDBRANCH  30  31
ENDBRANCH   1  30
TORSDOF 5
