REMARK SMILES CCOC(=O)CC(SP(=S)(OC)OC)C(=O)OCC
REMARK SMILES IDX 6 1 4 2 5 3 3 4 2 5 1 6 7 7 8 8 9 9 10 10 11 11 12 12 13 13
REMARK SMILES IDX 14 14 15 15 16 16 17 17 18 18 19 19
REMARK H PARENT
REMARK Flexibility Score: inf
ROOT
ATOM      1  C   UNL     1       0.520  -0.574  -2.195  1.00  0.00     0.149 C 
ENDROOT
BRANCH   1   2
ATOM      2  C   UNL     1       1.837  -0.916  -1.559  1.00  0.00     0.307 C 
ATOM      3  O   UNL     1       2.165  -2.125  -1.419  1.00  0.00    -0.252 OA
BRANCH   2   4
ATOM      4  O   UNL     1       2.684   0.108  -1.123  1.00  0.00    -0.466 OA
BRANCH   4   5
ATOM      5  C   UNL     1       3.897  -0.127  -0.410  1.00  0.00     0.229 C 
ATOM      6  C   UNL     1       3.607  -0.609   1.008  1.00  0.00     0.049 C 
ENDBRANCH   4   5
ENDBRANCH   2   4
ENDBRANCH   1   2
BRANCH   1   7
ATOM      7  C   UNL     1      -0.489   0.059  -1.216  1.00  0.00     0.177 C 
BRANCH   7   8
ATOM      8  S   UNL     1      -0.640  -0.919   0.337  1.00  0.00    -0.054 SA
BRANCH   8   9
ATOM      9  P   UNL     1      -2.497  -1.856  -0.119  1.00  0.00     0.247 P 
ATOM     10  S   UNL     1      -2.254  -2.924  -1.459  1.00  0.00    -0.026 S 
BRANCH   9  11
ATOM     11  O   UNL     1      -2.981  -2.752   1.254  1.00  0.00    -0.325 OA
ATOM     12  C   UNL     1      -4.297  -3.212   1.062  1.00  0.00     0.204 C 
ENDBRANCH   9  11
BRANCH   9  13
ATOM     13  O   UNL     1      -3.682  -0.697  -0.535  1.00  0.00    -0.325 OA
ATOM     14  C   UNL     1      -3.754   0.260   0.493  1.00  0.00     0.204 C 
ENDBRANCH   9  13
ENDBRANCH   8   9
ENDBRANCH   7   8
BRANCH   7  15
ATOM     15  C   UNL     1      -0.119   1.480  -0.896  1.00  0.00     0.320 C 
ATOM     16  O   UNL     1      -0.585   2.415  -1.603  1.00  0.00    -0.251 OA
BRANCH  15  17
ATOM     17  O   UNL     1       0.763   1.762   0.153  1.00  0.00    -0.465 OA
BRANCH  17  18
ATOM     18  C   UNL     1       1.135   3.092   0.502  1.00  0.00     0.229 C 
ATOM     19  C   UNL     1       2.141   3.062   1.641  1.00  0.00     0.049 C 
ENDBRANCH  17  18
ENDBRANCH  15  17
ENDBRANCH   7  15
ENDBRANCH   1   7
TORSDOF 11
