REMARK SMILES CN(C)CCOC(C)(c1ccccc1)c1ccccn1
REMARK SMILES IDX 5 1 4 2 2 3 1 4 3 5 6 6 7 7 8 8 9 9 10 10 14 11 11 12 13 13
REMARK SMILES IDX 12 14 15 15 16 16 20 17 17 18 19 19 18 20
REMARK H PARENT
REMARK Flexibility Score: inf
ROOT
ATOM      1  C   UNL     1       1.422  -1.036   0.482  1.00  0.00     0.177 C 
ENDROOT
BRANCH   1   2
ATOM      2  C   UNL     1       2.233  -1.561  -0.703  1.00  0.00     0.112 C 
BRANCH   2   3
ATOM      3  N   UNL     1       3.024  -0.479  -1.332  1.00  0.00    -0.307 NA
ATOM      4  C   UNL     1       4.277  -0.240  -0.594  1.00  0.00     0.105 C 
ATOM      5  C   UNL     1       3.337  -0.826  -2.728  1.00  0.00     0.105 C 
ENDBRANCH   2   3
ENDBRANCH   1   2
BRANCH   1   6
ATOM      6  O   UNL     1       0.660   0.087   0.066  1.00  0.00    -0.363 OA
BRANCH   6   7
ATOM      7  C   UNL     1      -0.494   0.331   0.873  1.00  0.00     0.132 C 
ATOM      8  C   UNL     1      -0.097   0.512   2.363  1.00  0.00     0.055 C 
BRANCH   7   9
ATOM      9  C   UNL     1      -1.535  -0.780   0.643  1.00  0.00    -0.011 A 
ATOM     10  C   UNL     1      -1.728  -1.277  -0.663  1.00  0.00     0.007 A 
ATOM     11  C   UNL     1      -2.369  -1.266   1.675  1.00  0.00     0.007 A 
ATOM     12  C   UNL     1      -2.690  -2.259  -0.919  1.00  0.00     0.000 A 
ATOM     13  C   UNL     1      -3.328  -2.248   1.411  1.00  0.00     0.000 A 
ATOM     14  C   UNL     1      -3.486  -2.747   0.117  1.00  0.00     0.000 A 
ENDBRANCH   7   9
BRANCH   7  15
ATOM     15  C   UNL     1      -1.098   1.654   0.420  1.00  0.00     0.076 A 
ATOM     16  C   UNL     1      -0.278   2.713  -0.016  1.00  0.00     0.027 A 
ATOM     17  N   UNL     1      -2.443   1.863   0.526  1.00  0.00    -0.258 NA
ATOM     18  C   UNL     1      -0.857   3.931  -0.376  1.00  0.00     0.004 A 
ATOM     19  C   UNL     1      -3.024   3.043   0.185  1.00  0.00     0.111 A 
ATOM     20  C   UNL     1      -2.239   4.099  -0.279  1.00  0.00     0.020 A 
ENDBRANCH   7  15
ENDBRANCH   6   7
ENDBRANCH   1   6
TORSDOF 6
