REMARK SMILES C[n+]1ccccc1/C=N/O
REMARK SMILES IDX 8 1 9 2 7 3 1 4 2 5 3 6 6 7 4 8 5 9 10 10
REMARK H PARENT 10 11
REMARK Flexibility Score: inf
ROOT
ATOM      1  C   UNL     1       1.686  -0.527  -0.375  1.00  0.00     0.232 C 
ATOM      2  N   UNL     1       2.426   0.089   0.489  1.00  0.00    -0.091 NA
ENDROOT
BRANCH   1   3
ATOM      3  C   UNL     1       0.203  -0.464  -0.329  1.00  0.00     0.226 A 
ATOM      4  C   UNL     1       0.165   1.799   0.727  1.00  0.00     0.440 C 
ATOM      5  N   UNL     1      -0.504   0.596   0.210  1.00  0.00    -0.200 N 
ATOM      6  C   UNL     1      -1.873   0.552   0.265  1.00  0.00     0.308 A 
ATOM      7  C   UNL     1      -0.494  -1.553  -0.878  1.00  0.00     0.081 A 
ATOM      8  C   UNL     1      -2.579  -0.531  -0.255  1.00  0.00     0.071 A 
ATOM      9  C   UNL     1      -1.885  -1.584  -0.838  1.00  0.00     0.013 A 
ENDBRANCH   1   3
BRANCH   2  10
ATOM     10  O   UNL     1       3.795  -0.031   0.450  1.00  0.00    -0.411 OA
ATOM     11  H   UNL     1       4.365   0.456   1.130  1.00  0.00     0.330 HD
ENDBRANCH   2  10
TORSDOF 2
