REMARK SMILES CCCCS(=O)(=O)N[C@@H](Cc1ccc(OCCCCC2CCNCC2)cc1)C(=O)O
REMARK SMILES IDX 11 1 12 2 13 3 14 4 26 5 27 6 10 7 9 8 8 9 5 11 6 12 7 13
REMARK SMILES IDX 4 14 3 15 2 16 1 17 28 18 29 19 30 20 15 22 16 23 17 24
REMARK SMILES IDX 18 25 19 26 20 27 21 28 25 29 22 30 24 31 23 32
REMARK H PARENT 8 10 30 21 23 33
REMARK Flexibility Score: inf
ROOT
ATOM      1  C   UNL     1       2.398   1.073  -1.825  1.00  0.00    -0.046 A 
ATOM      2  C   UNL     1       1.630   1.972  -1.069  1.00  0.00     0.007 A 
ATOM      3  C   UNL     1       0.347   1.620  -0.640  1.00  0.00     0.047 A 
ATOM      4  C   UNL     1      -0.189   0.360  -0.967  1.00  0.00     0.119 A 
ATOM      5  C   UNL     1       0.580  -0.535  -1.718  1.00  0.00     0.047 A 
ATOM      6  C   UNL     1       1.863  -0.184  -2.145  1.00  0.00     0.007 A 
ENDROOT
BRANCH   1   7
ATOM      7  C   UNL     1       3.790   1.449  -2.276  1.00  0.00     0.067 C 
BRANCH   7   8
ATOM      8  C   UNL     1       4.896   0.963  -1.320  1.00  0.00     0.183 C 
BRANCH   8   9
ATOM      9  N   UNL     1       4.869  -0.509  -1.223  1.00  0.00    -0.201 NA
ATOM     10  H   UNL     1       4.265  -0.833  -0.434  1.00  0.00     0.142 HD
BRANCH   9  11
ATOM     11  S   UNL     1       6.462  -1.185  -1.024  1.00  0.00     0.212 S 
ATOM     12  O   UNL     1       6.350  -2.684  -0.989  1.00  0.00    -0.212 OA
ATOM     13  O   UNL     1       7.319  -0.797  -2.197  1.00  0.00    -0.212 OA
BRANCH  11  14
ATOM     14  C   UNL     1       7.250  -0.624   0.481  1.00  0.00     0.154 C 
BRANCH  14  15
ATOM     15  C   UNL     1       6.513  -1.140   1.720  1.00  0.00     0.017 C 
BRANCH  15  16
ATOM     16  C   UNL     1       7.155  -0.602   3.002  1.00  0.00    -0.002 C 
ATOM     17  C   UNL     1       6.424  -1.113   4.240  1.00  0.00     0.004 C 
ENDBRANCH  15  16
ENDBRANCH  14  15
ENDBRANCH  11  14
ENDBRANCH   9  11
ENDBRANCH   8   9
BRANCH   8  18
ATOM     18  C   UNL     1       4.781   1.631   0.031  1.00  0.00     0.322 C 
ATOM     19  O   UNL     1       5.510   2.623   0.302  1.00  0.00    -0.251 OA
BRANCH  18  20
ATOM     20  O   UNL     1       3.846   1.191   0.964  1.00  0.00    -0.480 OA
ATOM     21  H   UNL     1       3.756   1.645   1.865  1.00  0.00     0.296 HD
ENDBRANCH  18  20
ENDBRANCH   8  18
ENDBRANCH   7   8
ENDBRANCH   1   7
BRANCH   4  22
ATOM     22  O   UNL     1      -1.475  -0.036  -0.570  1.00  0.00    -0.494 OA
BRANCH  22  23
ATOM     23  C   UNL     1      -2.373   0.779   0.180  1.00  0.00     0.229 C 
BRANCH  23  24
ATOM     24  C   UNL     1      -3.688   0.029   0.384  1.00  0.00     0.042 C 
BRANCH  24  25
ATOM     25  C   UNL     1      -4.697   0.888   1.158  1.00  0.00     0.004 C 
BRANCH  25  26
ATOM     26  C   UNL     1      -5.981   0.131   1.562  1.00  0.00     0.004 C 
BRANCH  26  27
ATOM     27  C   UNL     1      -6.937  -0.308   0.419  1.00  0.00    -0.009 C 
ATOM     28  C   UNL     1      -6.605  -1.715  -0.138  1.00  0.00     0.019 C 
ATOM     29  C   UNL     1      -7.084   0.727  -0.712  1.00  0.00     0.019 C 
ATOM     30  C   UNL     1      -7.086  -1.896  -1.590  1.00  0.00     0.081 C 
ATOM     31  C   UNL     1      -8.164   0.296  -1.730  1.00  0.00     0.081 C 
ATOM     32  N   UNL     1      -8.338  -1.167  -1.833  1.00  0.00    -0.317 NA
ATOM     33  H   UNL     1      -9.048  -1.478  -1.129  1.00  0.00     0.122 HD
ENDBRANCH  26  27
ENDBRANCH  25  26
ENDBRANCH  24  25
ENDBRANCH  23  24
ENDBRANCH  22  23
ENDBRANCH   4  22
TORSDOF 15
