REMARK SMILES C[C@@](Cc1ccc(O)c(O)c1)(NN)C(=O)O
REMARK SMILES IDX 1 1 2 2 3 3 4 4 11 5 5 6 9 7 6 8 7 9 10 10 8 12 12 14 13 16
REMARK SMILES IDX 14 19 15 20 16 21
REMARK H PARENT 10 11 8 13 12 15 13 17 13 18 16 22
REMARK Flexibility Score: inf
ROOT
ATOM      1  C   UNL     1      -1.509   1.485  -0.888  1.00  0.00     0.042 C 
ATOM      2  C   UNL     1      -1.799   0.034  -0.436  1.00  0.00     0.130 C 
ENDROOT
BRANCH   2   3
ATOM      3  C   UNL     1      -0.670  -0.945  -0.900  1.00  0.00     0.071 C 
BRANCH   3   4
ATOM      4  C   UNL     1       0.683  -0.708  -0.271  1.00  0.00    -0.042 A 
ATOM      5  C   UNL     1       1.582   0.210  -0.840  1.00  0.00     0.054 A 
ATOM      6  C   UNL     1       1.068  -1.421   0.876  1.00  0.00     0.008 A 
ATOM      7  C   UNL     1       2.838   0.432  -0.258  1.00  0.00     0.157 A 
ATOM      8  C   UNL     1       2.319  -1.202   1.457  1.00  0.00     0.050 A 
ATOM      9  C   UNL     1       3.206  -0.278   0.898  1.00  0.00     0.157 A 
BRANCH   7  10
ATOM     10  O   UNL     1       3.720   1.351  -0.824  1.00  0.00    -0.504 OA
ATOM     11  H   UNL     1       3.478   1.875  -1.656  1.00  0.00     0.293 HD
ENDBRANCH   7  10
BRANCH   9  12
ATOM     12  O   UNL     1       4.448  -0.079   1.502  1.00  0.00    -0.504 OA
ATOM     13  H   UNL     1       5.125   0.579   1.135  1.00  0.00     0.293 HD
ENDBRANCH   9  12
ENDBRANCH   3   4
ENDBRANCH   2   3
BRANCH   2  14
ATOM     14  N   UNL     1      -2.023  -0.040   1.028  1.00  0.00    -0.243 NA
ATOM     15  H   UNL     1      -2.031  -1.048   1.320  1.00  0.00     0.142 HD
BRANCH  14  16
ATOM     16  N   UNL     1      -1.002   0.627   1.737  1.00  0.00    -0.270 NA
ATOM     17  H   UNL     1      -0.921   0.189   2.684  1.00  0.00     0.137 HD
ATOM     18  H   UNL     1      -1.339   1.601   1.910  1.00  0.00     0.137 HD
ENDBRANCH  14  16
ENDBRANCH   2  14
BRANCH   2  19
ATOM     19  C   UNL     1      -3.089  -0.383  -1.117  1.00  0.00     0.325 C 
ATOM     20  O   UNL     1      -3.116  -0.592  -2.362  1.00  0.00    -0.250 OA
BRANCH  19  21
ATOM     21  O   UNL     1      -4.269  -0.492  -0.384  1.00  0.00    -0.480 OA
ATOM     22  H   UNL     1      -5.138  -0.754  -0.834  1.00  0.00     0.296 HD
ENDBRANCH  19  21
ENDBRANCH   2  19
TORSDOF 8
