REMARK SMILES Oc1ccc2c3c1O[C@H]1[C@@H](O)CC[C@@]4(O)[C@@H](C2)N(CC2CCC2)CC[C@]314
REMARK SMILES IDX 10 1 12 2 13 3 14 4 16 5 17 6 5 7 4 8 3 9 2 10 7 11 6 12
REMARK SMILES IDX 26 13 25 14 24 15 18 16 9 17 8 18 11 19 15 21 1 23 19 25
REMARK SMILES IDX 20 26 21 27 23 28 22 29
REMARK H PARENT 11 20 15 22 1 24
REMARK Flexibility Score: inf
ROOT
ATOM      1  C   UNL     1      -3.341   1.733   0.832  1.00  0.00     0.156 C 
ATOM      2  C   UNL     1      -2.219   2.191   1.779  1.00  0.00     0.039 C 
ATOM      3  C   UNL     1      -1.100   1.146   1.873  1.00  0.00     0.041 C 
ATOM      4  C   UNL     1      -0.413   1.016   0.499  1.00  0.00     0.094 C 
ATOM      5  C   UNL     1       0.742  -0.043   0.461  1.00  0.00     0.094 C 
ATOM      6  C   UNL     1       0.254  -1.508   0.766  1.00  0.00     0.058 C 
ATOM      7  C   UNL     1      -1.076  -1.850   0.142  1.00  0.00    -0.038 A 
ATOM      8  C   UNL     1      -1.647  -3.136   0.201  1.00  0.00     0.008 A 
ATOM      9  C   UNL     1      -2.967  -3.347  -0.265  1.00  0.00     0.050 A 
ATOM     10  C   UNL     1      -3.738  -2.264  -0.738  1.00  0.00     0.158 A 
ATOM     11  C   UNL     1      -3.142  -1.001  -0.763  1.00  0.00     0.165 A 
ATOM     12  C   UNL     1      -1.848  -0.829  -0.387  1.00  0.00     0.014 A 
ATOM     13  C   UNL     1      -1.433   0.581  -0.582  1.00  0.00     0.070 C 
ATOM     14  C   UNL     1      -0.744   0.676  -1.971  1.00  0.00     0.034 C 
ATOM     15  C   UNL     1       0.559  -0.158  -2.023  1.00  0.00     0.086 C 
ATOM     16  N   UNL     1       1.437   0.095  -0.855  1.00  0.00    -0.297 NA
ATOM     17  C   UNL     1      -2.844   1.270  -0.580  1.00  0.00     0.215 C 
ATOM     18  O   UNL     1      -3.723   0.226  -1.039  1.00  0.00    -0.482 OA
ENDROOT
BRANCH   1  19
ATOM     19  O   UNL     1      -4.070   0.704   1.458  1.00  0.00    -0.389 OA
ATOM     20  H   UNL     1      -4.660   1.131   2.133  1.00  0.00     0.211 HD
ENDBRANCH   1  19
BRANCH   4  21
ATOM     21  O   UNL     1       0.116   2.279   0.148  1.00  0.00    -0.387 OA
ATOM     22  H   UNL     1       0.827   2.508   0.804  1.00  0.00     0.211 HD
ENDBRANCH   4  21
BRANCH  10  23
ATOM     23  O   UNL     1      -5.057  -2.455  -1.140  1.00  0.00    -0.504 OA
ATOM     24  H   UNL     1      -5.624  -1.684  -1.473  1.00  0.00     0.293 HD
ENDBRANCH  10  23
BRANCH  16  25
ATOM     25  C   UNL     1       2.718  -0.638  -0.989  1.00  0.00     0.088 C 
BRANCH  25  26
ATOM     26  C   UNL     1       3.755  -0.221   0.075  1.00  0.00     0.003 C 
ATOM     27  C   UNL     1       4.120   1.262   0.035  1.00  0.00     0.005 C 
ATOM     28  C   UNL     1       5.194  -0.580  -0.295  1.00  0.00     0.005 C 
ATOM     29  C   UNL     1       5.553   0.899  -0.330  1.00  0.00     0.001 C 
ENDBRANCH  25  26
ENDBRANCH  16  25
TORSDOF 5
