REMARK SMILES CC(C)=CCN1CCC2(C)c3cc(O)ccc3CC1C2C
REMARK SMILES IDX 21 1 20 2 19 3 18 4 17 5 11 6 12 7 13 8 15 9 16 10 9 11
REMARK SMILES IDX 10 12 8 13 7 14 6 15 5 16 4 17 2 18 1 19 3 20 14 21
REMARK H PARENT 14 22
REMARK Flexibility Score: inf
ROOT
ATOM      1  C   UNL     1      -0.933  -0.837   2.830  1.00  0.00     0.010 C 
ATOM      2  C   UNL     1      -0.317  -0.800   1.412  1.00  0.00     0.014 C 
ATOM      3  C   UNL     1       0.210   0.609   1.034  1.00  0.00     0.065 C 
ATOM      4  C   UNL     1      -0.934   1.629   1.132  1.00  0.00     0.055 C 
ATOM      5  C   UNL     1      -2.186   1.162   0.424  1.00  0.00    -0.042 A 
ATOM      6  C   UNL     1      -2.391  -0.200   0.065  1.00  0.00    -0.035 A 
ATOM      7  C   UNL     1      -3.581  -0.538  -0.619  1.00  0.00     0.050 A 
ATOM      8  C   UNL     1      -4.566   0.419  -0.871  1.00  0.00     0.115 A 
ATOM      9  C   UNL     1      -4.374   1.740  -0.463  1.00  0.00     0.046 A 
ATOM     10  C   UNL     1      -3.192   2.109   0.177  1.00  0.00     0.008 A 
ATOM     11  C   UNL     1      -1.286  -1.257   0.279  1.00  0.00    -0.002 C 
ATOM     12  C   UNL     1      -1.893  -2.638   0.649  1.00  0.00     0.017 C 
ATOM     13  C   UNL     1      -0.472  -1.400  -1.051  1.00  0.00     0.027 C 
ATOM     14  C   UNL     1       0.866  -0.635  -1.051  1.00  0.00     0.086 C 
ATOM     15  N   UNL     1       0.750   0.663  -0.356  1.00  0.00    -0.296 NA
ENDROOT
BRANCH  15  16
ATOM     16  C   UNL     1       1.975   1.484  -0.481  1.00  0.00     0.112 C 
BRANCH  16  17
ATOM     17  C   UNL     1       3.195   0.811   0.122  1.00  0.00    -0.013 C 
ATOM     18  C   UNL     1       4.265   0.375  -0.580  1.00  0.00    -0.079 C 
ATOM     19  C   UNL     1       5.386  -0.301   0.167  1.00  0.00     0.039 C 
ATOM     20  C   UNL     1       4.369   0.545  -2.077  1.00  0.00     0.039 C 
ENDBRANCH  16  17
ENDBRANCH  15  16
BRANCH   8  21
ATOM     21  O   UNL     1      -5.734   0.045  -1.534  1.00  0.00    -0.508 OA
ATOM     22  H   UNL     1      -6.467   0.715  -1.733  1.00  0.00     0.293 HD
ENDBRANCH   8  21
TORSDOF 3
