REMARK SMILES CO[C@]12C[C@@H](COC(=O)c3cncc(Br)c3)CN(C)[C@@H]1Cc1cn(C)c3cccc2c13
REMARK SMILES IDX 6 1 5 2 20 3 21 4 3 5 18 6 22 7 30 8 4 9 17 10 19 11 23 12
REMARK SMILES IDX 31 13 29 14 24 15 26 16 28 17 25 18 27 19 2 20 1 21 7 22
REMARK SMILES IDX 8 23 9 24 10 25 11 26 16 27 12 28 14 29 13 30 15 31
REMARK H PARENT
REMARK Flexibility Score: inf
ROOT
ATOM      1  C   UNL     1       2.405  -0.970   2.020  1.00  0.00     0.238 C 
ENDROOT
BRANCH   1   2
ATOM      2  C   UNL     1       1.095  -1.353   1.316  1.00  0.00     0.044 C 
ATOM      3  C   UNL     1      -1.817  -1.257   1.053  1.00  0.00     0.097 C 
ATOM      4  C   UNL     1      -3.239  -1.598   0.501  1.00  0.00     0.060 C 
ATOM      5  C   UNL     1      -0.922  -0.475   0.004  1.00  0.00     0.110 C 
ATOM      6  N   UNL     1      -1.143  -2.430   1.672  1.00  0.00    -0.299 NA
ATOM      7  C   UNL     1      -3.844  -0.350  -0.061  1.00  0.00    -0.020 A 
ATOM      8  C   UNL     1      -1.702   0.786  -0.424  1.00  0.00    -0.005 A 
ATOM      9  C   UNL     1       0.410  -0.109   0.720  1.00  0.00     0.050 C 
ATOM     10  C   UNL     1       0.141  -2.057   2.302  1.00  0.00     0.091 C 
ATOM     11  C   UNL     1      -1.020  -3.637   0.830  1.00  0.00     0.105 C 
ATOM     12  C   UNL     1      -5.165   0.049  -0.230  1.00  0.00     0.090 A 
ATOM     13  C   UNL     1      -3.083   0.694  -0.482  1.00  0.00     0.009 A 
ATOM     14  C   UNL     1      -1.142   2.026  -0.821  1.00  0.00     0.007 A 
ATOM     15  N   UNL     1      -5.196   1.313  -0.734  1.00  0.00    -0.350 N 
ATOM     16  C   UNL     1      -3.908   1.703  -0.864  1.00  0.00     0.048 A 
ATOM     17  C   UNL     1      -1.984   3.092  -1.230  1.00  0.00     0.003 A 
ATOM     18  C   UNL     1      -6.388   2.123  -0.962  1.00  0.00     0.149 C 
ATOM     19  C   UNL     1      -3.387   2.939  -1.252  1.00  0.00     0.027 A 
BRANCH   5  20
ATOM     20  O   UNL     1      -0.743  -1.336  -1.121  1.00  0.00    -0.372 OA
ATOM     21  C   UNL     1       0.172  -0.856  -2.087  1.00  0.00     0.196 C 
ENDBRANCH   5  20
ENDBRANCH   1   2
BRANCH   1  22
ATOM     22  O   UNL     1       3.316  -0.420   1.073  1.00  0.00    -0.462 OA
BRANCH  22  23
ATOM     23  C   UNL     1       4.592   0.035   1.417  1.00  0.00     0.339 C 
ATOM     24  O   UNL     1       4.998  -0.058   2.608  1.00  0.00    -0.246 OA
BRANCH  23  25
ATOM     25  C   UNL     1       5.460   0.628   0.378  1.00  0.00     0.079 A 
ATOM     26  C   UNL     1       6.756   1.078   0.685  1.00  0.00     0.126 A 
ATOM     27  C   UNL     1       5.004   0.756  -0.944  1.00  0.00     0.034 A 
ATOM     28  N   UNL     1       7.540   1.623  -0.284  1.00  0.00    -0.263 NA
ATOM     29  C   UNL     1       5.830   1.319  -1.920  1.00  0.00     0.037 A 
ATOM     30  C   UNL     1       7.109   1.752  -1.566  1.00  0.00     0.126 A 
ATOM     31  Br  UNL     1       5.214   1.497  -3.719  1.00  0.00    -0.049 Br
ENDBRANCH  23  25
ENDBRANCH  22  23
ENDBRANCH   1  22
TORSDOF 5
