REMARK SMILES CCCc1nc2c(C)cc(-c3nc4ccccc4n3C)cc2n1Cc1ccc(-c2ccccc2C(=O)O)cc1
REMARK SMILES IDX 25 1 26 2 27 3 28 4 38 5 39 6 24 7 23 8 4 9 5 10 6 11 22 12
REMARK SMILES IDX 7 13 21 14 9 15 8 16 10 17 3 18 2 19 1 20 11 21 12 22 19 23
REMARK SMILES IDX 13 24 18 25 20 26 14 27 17 28 15 29 16 30 29 31 30 32 34 33
REMARK SMILES IDX 31 34 33 35 32 36 35 37 36 38 37 39
REMARK H PARENT 37 40
REMARK Flexibility Score: inf
ROOT
ATOM      1  C   UNL     1       1.659  -1.228   1.422  1.00  0.00    -0.028 A 
ATOM      2  C   UNL     1       2.906  -1.835   1.644  1.00  0.00     0.006 A 
ATOM      3  C   UNL     1       4.084  -1.200   1.238  1.00  0.00     0.009 A 
ATOM      4  C   UNL     1       4.032   0.048   0.599  1.00  0.00    -0.018 A 
ATOM      5  C   UNL     1       2.789   0.671   0.408  1.00  0.00     0.009 A 
ATOM      6  C   UNL     1       1.612   0.037   0.813  1.00  0.00     0.006 A 
ENDROOT
BRANCH   1   7
ATOM      7  C   UNL     1       0.385  -1.918   1.839  1.00  0.00     0.159 C 
BRANCH   7   8
ATOM      8  N   UNL     1      -0.478  -2.155   0.675  1.00  0.00    -0.323 N 
ATOM      9  C   UNL     1      -0.373  -3.142  -0.259  1.00  0.00     0.110 A 
ATOM     10  N   UNL     1      -1.338  -3.079  -1.213  1.00  0.00    -0.233 NA
ATOM     11  C   UNL     1      -2.045  -1.987  -0.869  1.00  0.00     0.092 A 
ATOM     12  C   UNL     1      -1.532  -1.425   0.263  1.00  0.00     0.069 A 
ATOM     13  C   UNL     1      -3.141  -1.438  -1.538  1.00  0.00    -0.022 A 
ATOM     14  C   UNL     1      -2.082  -0.271   0.826  1.00  0.00     0.040 A 
ATOM     15  C   UNL     1      -3.716  -0.269  -0.995  1.00  0.00     0.017 A 
ATOM     16  C   UNL     1      -3.697  -2.083  -2.774  1.00  0.00     0.047 C 
ATOM     17  C   UNL     1      -3.202   0.311   0.193  1.00  0.00     0.020 A 
BRANCH   9  18
ATOM     18  C   UNL     1       0.648  -4.251  -0.214  1.00  0.00     0.075 C 
BRANCH  18  19
ATOM     19  C   UNL     1       1.120  -4.675  -1.613  1.00  0.00     0.005 C 
ATOM     20  C   UNL     1       1.904  -3.570  -2.328  1.00  0.00     0.004 C 
ENDBRANCH  18  19
ENDBRANCH   9  18
BRANCH  17  21
ATOM     21  C   UNL     1      -3.776   1.558   0.745  1.00  0.00     0.140 A 
ATOM     22  N   UNL     1      -2.988   2.546   1.246  1.00  0.00    -0.228 NA
ATOM     23  N   UNL     1      -5.107   1.849   0.815  1.00  0.00    -0.327 N 
ATOM     24  C   UNL     1      -3.871   3.489   1.618  1.00  0.00     0.089 A 
ATOM     25  C   UNL     1      -5.145   3.080   1.357  1.00  0.00     0.068 A 
ATOM     26  C   UNL     1      -6.250   1.016   0.444  1.00  0.00     0.152 C 
ATOM     27  C   UNL     1      -3.597   4.725   2.201  1.00  0.00     0.030 A 
ATOM     28  C   UNL     1      -6.254   3.874   1.666  1.00  0.00     0.028 A 
ATOM     29  C   UNL     1      -4.689   5.553   2.523  1.00  0.00     0.002 A 
ATOM     30  C   UNL     1      -6.012   5.129   2.258  1.00  0.00     0.002 A 
ENDBRANCH  17  21
ENDBRANCH   7   8
ENDBRANCH   1   7
BRANCH   4  31
ATOM     31  C   UNL     1       5.278   0.717   0.159  1.00  0.00    -0.004 A 
ATOM     32  C   UNL     1       6.265   0.991   1.122  1.00  0.00     0.009 A 
ATOM     33  C   UNL     1       5.474   1.149  -1.182  1.00  0.00     0.067 A 
ATOM     34  C   UNL     1       7.414   1.705   0.780  1.00  0.00     0.001 A 
ATOM     35  C   UNL     1       6.627   1.890  -1.498  1.00  0.00     0.016 A 
ATOM     36  C   UNL     1       7.590   2.162  -0.525  1.00  0.00     0.001 A 
BRANCH  33  37
ATOM     37  C   UNL     1       4.533   0.810  -2.278  1.00  0.00     0.336 C 
ATOM     38  O   UNL     1       3.862  -0.257  -2.240  1.00  0.00    -0.246 OA
BRANCH  37  39
ATOM     39  O   UNL     1       4.417   1.650  -3.382  1.00  0.00    -0.478 OA
ATOM     40  H   UNL     1       3.793   1.418  -4.145  1.00  0.00     0.297 HD
ENDBRANCH  37  39
ENDBRANCH  33  37
ENDBRANCH   4  31
TORSDOF 8
