REMARK SMILES CN1CCN(CC(=O)N2c3ccccc3C(=O)Nc3cccnc32)CC1
REMARK SMILES IDX 6 1 5 2 1 3 2 4 3 5 26 6 4 7 25 8 7 9 8 10 9 11 10 12 24 13
REMARK SMILES IDX 11 14 15 15 19 16 23 17 12 18 14 19 16 20 18 21 20 22 22 23
REMARK SMILES IDX 13 24 17 25 21 27
REMARK H PARENT 18 26
REMARK Flexibility Score: inf
ROOT
ATOM      1  C   UNL     1       0.561  -0.181  -1.223  1.00  0.00     0.186 C 
ENDROOT
BRANCH   1   2
ATOM      2  N   UNL     1       2.014  -0.120  -0.960  1.00  0.00    -0.292 NA
ATOM      3  C   UNL     1       5.978  -1.262   0.017  1.00  0.00     0.105 C 
ATOM      4  N   UNL     1       4.530  -1.325  -0.231  1.00  0.00    -0.304 NA
ATOM      5  C   UNL     1       4.240  -0.948  -1.627  1.00  0.00     0.099 C 
ATOM      6  C   UNL     1       3.818  -0.425   0.695  1.00  0.00     0.099 C 
ATOM      7  C   UNL     1       2.731  -1.019  -1.885  1.00  0.00     0.100 C 
ATOM      8  C   UNL     1       2.310  -0.496   0.438  1.00  0.00     0.100 C 
ENDBRANCH   1   2
BRANCH   1   9
ATOM      9  C   UNL     1      -0.156   0.974  -0.568  1.00  0.00     0.246 C 
ATOM     10  O   UNL     1       0.362   2.122  -0.645  1.00  0.00    -0.273 OA
BRANCH   9  11
ATOM     11  N   UNL     1      -1.461   0.817   0.031  1.00  0.00    -0.261 N 
ATOM     12  C   UNL     1      -1.952  -0.456   0.465  1.00  0.00     0.063 A 
ATOM     13  C   UNL     1      -2.260   1.962   0.336  1.00  0.00     0.163 A 
ATOM     14  C   UNL     1      -1.247  -1.170   1.449  1.00  0.00     0.027 A 
ATOM     15  C   UNL     1      -3.148  -0.983  -0.061  1.00  0.00     0.064 A 
ATOM     16  C   UNL     1      -3.555   2.094  -0.197  1.00  0.00     0.085 A 
ATOM     17  N   UNL     1      -1.759   2.931   1.152  1.00  0.00    -0.236 NA
ATOM     18  C   UNL     1      -1.703  -2.415   1.882  1.00  0.00     0.002 A 
ATOM     19  C   UNL     1      -3.587  -2.247   0.375  1.00  0.00     0.016 A 
ATOM     20  C   UNL     1      -3.918  -0.276  -1.113  1.00  0.00     0.257 C 
ATOM     21  N   UNL     1      -4.090   1.152  -1.142  1.00  0.00    -0.319 N 
ATOM     22  C   UNL     1      -4.291   3.247   0.113  1.00  0.00     0.032 A 
ATOM     23  C   UNL     1      -2.472   4.042   1.474  1.00  0.00     0.113 A 
ATOM     24  C   UNL     1      -2.870  -2.956   1.342  1.00  0.00     0.001 A 
ATOM     25  O   UNL     1      -4.496  -0.964  -1.997  1.00  0.00    -0.269 OA
ATOM     26  H   UNL     1      -4.775   1.521  -1.841  1.00  0.00     0.170 HD
ATOM     27  C   UNL     1      -3.755   4.219   0.958  1.00  0.00     0.022 A 
ENDBRANCH   9  11
ENDBRANCH   1   9
TORSDOF 3
