REMARK SMILES CCn1cc(C(=O)O)c(=O)c2cc(F)c(N3CCNCC3)nc21
REMARK SMILES IDX 3 1 4 2 5 3 9 4 10 5 11 6 12 7 13 8 14 9 15 10 22 11 23 12
REMARK SMILES IDX 2 13 1 14 6 15 7 16 8 17 16 19 17 20 21 21 18 22 20 23 19 24
REMARK H PARENT 8 18 19 25
REMARK Flexibility Score: inf
ROOT
ATOM      1  N   UNL     1       2.226   0.271   0.835  1.00  0.00    -0.332 N 
ATOM      2  C   UNL     1       3.544   0.409   0.498  1.00  0.00     0.107 A 
ATOM      3  C   UNL     1       3.939   0.696  -0.820  1.00  0.00     0.124 A 
ATOM      4  C   UNL     1       2.942   0.828  -1.808  1.00  0.00     0.205 A 
ATOM      5  O   UNL     1       3.256   1.086  -3.003  1.00  0.00    -0.288 OA
ATOM      6  C   UNL     1       1.590   0.667  -1.460  1.00  0.00     0.069 A 
ATOM      7  C   UNL     1       0.562   0.766  -2.414  1.00  0.00     0.059 A 
ATOM      8  C   UNL     1      -0.769   0.587  -2.034  1.00  0.00     0.166 A 
ATOM      9  F   UNL     1      -1.745   0.631  -2.976  1.00  0.00    -0.203 F 
ATOM     10  C   UNL     1      -1.073   0.317  -0.693  1.00  0.00     0.167 A 
ATOM     11  N   UNL     1      -0.063   0.215   0.213  1.00  0.00    -0.210 NA
ATOM     12  C   UNL     1       1.248   0.382  -0.120  1.00  0.00     0.146 A 
ENDROOT
BRANCH   1  13
ATOM     13  C   UNL     1       1.885  -0.052   2.232  1.00  0.00     0.120 C 
ATOM     14  C   UNL     1       1.755  -1.561   2.414  1.00  0.00     0.027 C 
ENDBRANCH   1  13
BRANCH   3  15
ATOM     15  C   UNL     1       5.386   0.846  -1.129  1.00  0.00     0.341 C 
ATOM     16  O   UNL     1       5.776   1.098  -2.301  1.00  0.00    -0.246 OA
BRANCH  15  17
ATOM     17  O   UNL     1       6.335   0.709  -0.119  1.00  0.00    -0.477 OA
ATOM     18  H   UNL     1       7.324   0.808  -0.316  1.00  0.00     0.297 HD
ENDBRANCH  15  17
ENDBRANCH   3  15
BRANCH  10  19
ATOM     19  N   UNL     1      -2.431   0.113  -0.269  1.00  0.00    -0.352 N 
ATOM     20  C   UNL     1      -3.416   1.186  -0.440  1.00  0.00     0.133 C 
ATOM     21  C   UNL     1      -2.715  -0.912   0.739  1.00  0.00     0.133 C 
ATOM     22  C   UNL     1      -4.819   0.587  -0.584  1.00  0.00     0.102 C 
ATOM     23  C   UNL     1      -4.145  -1.437   0.561  1.00  0.00     0.102 C 
ATOM     24  N   UNL     1      -5.118  -0.336   0.520  1.00  0.00    -0.313 NA
ATOM     25  H   UNL     1      -5.076   0.189   1.425  1.00  0.00     0.122 HD
ENDBRANCH  10  19
TORSDOF 4
