REMARK SMILES Cc1cn([C@H]2C[C@H](N=[N+]=[N-])[C@@H](CO)O2)c(=O)[nH]c1=O
REMARK SMILES IDX 5 1 6 2 7 3 11 4 14 5 4 6 1 7 2 8 3 9 18 10 17 11 19 12
REMARK SMILES IDX 15 13 16 15 8 16 9 17 10 18 12 19 13 20
REMARK H PARENT 17 14 13 21
REMARK Flexibility Score: inf
ROOT
ATOM      1  C   UNL     1       0.341  -0.467  -0.346  1.00  0.00     0.224 C 
ATOM      2  C   UNL     1       0.762   0.513  -1.428  1.00  0.00     0.067 C 
ATOM      3  C   UNL     1       2.268   0.403  -1.421  1.00  0.00     0.109 C 
ATOM      4  C   UNL     1       2.590  -0.300  -0.088  1.00  0.00     0.155 C 
ATOM      5  O   UNL     1       1.384  -0.574   0.594  1.00  0.00    -0.352 OA
ENDROOT
BRANCH   1   6
ATOM      6  N   UNL     1      -0.913  -0.036   0.307  1.00  0.00    -0.274 N 
ATOM      7  C   UNL     1      -4.581  -0.953   0.143  1.00  0.00     0.052 C 
ATOM      8  C   UNL     1      -3.300  -0.261   0.521  1.00  0.00     0.031 A 
ATOM      9  C   UNL     1      -2.083  -0.647  -0.051  1.00  0.00     0.102 A 
ATOM     10  C   UNL     1      -3.285   0.765   1.472  1.00  0.00     0.256 A 
ATOM     11  N   UNL     1      -2.112   1.367   1.797  1.00  0.00    -0.274 N 
ATOM     12  O   UNL     1      -4.354   1.138   2.028  1.00  0.00    -0.269 OA
ATOM     13  C   UNL     1      -0.938   0.987   1.224  1.00  0.00     0.330 A 
ATOM     14  H   UNL     1      -2.112   2.142   2.501  1.00  0.00     0.175 HD
ATOM     15  O   UNL     1       0.123   1.590   1.543  1.00  0.00    -0.248 OA
ENDBRANCH   1   6
BRANCH   3  16
ATOM     16  N   UNL     1       2.759  -0.362  -2.571  1.00  0.00    -0.088 NA
ATOM     17  N   UNL     1       2.393  -1.519  -2.791  1.00  0.00     0.001 N 
ATOM     18  N   UNL     1       2.028  -2.673  -3.011  1.00  0.00    -0.003 NA
ENDBRANCH   3  16
BRANCH   4  19
ATOM     19  C   UNL     1       3.490   0.561   0.802  1.00  0.00     0.188 C 
BRANCH  19  20
ATOM     20  O   UNL     1       3.773  -0.122   1.992  1.00  0.00    -0.394 OA
ATOM     21  H   UNL     1       4.350   0.483   2.526  1.00  0.00     0.210 HD
ENDBRANCH  19  20
ENDBRANCH   4  19
TORSDOF 4
