REMARK SMILES Cc1ccsc1C(=CCCN1CCC[C@@H](C(=O)O)C1)c1sccc1C
REMARK SMILES IDX 10 1 9 2 8 3 7 4 6 5 1 6 2 7 3 8 5 9 4 10 20 11 24 12 21 13
REMARK SMILES IDX 25 14 23 15 22 16 11 17 12 18 19 19 13 20 15 21 14 22 16 23
REMARK SMILES IDX 17 24 18 25
REMARK H PARENT 18 26
REMARK Flexibility Score: inf
ROOT
ATOM      1  C   UNL     1       1.312   1.178  -0.266  1.00  0.00     0.088 C 
ENDROOT
BRANCH   1   2
ATOM      2  C   UNL     1       0.418   0.448   0.764  1.00  0.00     0.043 C 
BRANCH   2   3
ATOM      3  C   UNL     1      -0.714  -0.292   0.096  1.00  0.00    -0.015 C 
ATOM      4  C   UNL     1      -1.958   0.198  -0.067  1.00  0.00     0.005 C 
BRANCH   4   5
ATOM      5  C   UNL     1      -2.331   1.568   0.349  1.00  0.00     0.038 A 
ATOM      6  C   UNL     1      -4.293   0.924   1.861  1.00  0.00     0.046 C 
ATOM      7  C   UNL     1      -3.390   1.916   1.191  1.00  0.00    -0.032 A 
ATOM      8  C   UNL     1      -3.561   3.302   1.319  1.00  0.00     0.016 A 
ATOM      9  S   UNL     1      -1.633   2.985  -0.230  1.00  0.00    -0.144 S 
ATOM     10  C   UNL     1      -2.644   4.047   0.589  1.00  0.00     0.066 A 
ENDBRANCH   4   5
BRANCH   4  11
ATOM     11  C   UNL     1      -2.998  -0.627  -0.721  1.00  0.00     0.038 A 
ATOM     12  C   UNL     1      -3.318  -1.967  -0.469  1.00  0.00    -0.032 A 
ATOM     13  S   UNL     1      -4.061  -0.047  -1.891  1.00  0.00    -0.144 S 
ATOM     14  C   UNL     1      -2.639  -2.836   0.549  1.00  0.00     0.046 C 
ATOM     15  C   UNL     1      -4.374  -2.438  -1.268  1.00  0.00     0.016 A 
ATOM     16  C   UNL     1      -4.906  -1.479  -2.120  1.00  0.00     0.066 A 
ENDBRANCH   4  11
ENDBRANCH   2   3
ENDBRANCH   1   2
BRANCH   1  17
ATOM     17  N   UNL     1       2.522   0.434  -0.681  1.00  0.00    -0.302 NA
ATOM     18  C   UNL     1       2.233  -0.891  -1.259  1.00  0.00     0.084 C 
ATOM     19  C   UNL     1       3.555   0.359   0.374  1.00  0.00     0.099 C 
ATOM     20  C   UNL     1       3.492  -1.449  -1.928  1.00  0.00     0.016 C 
ATOM     21  C   UNL     1       4.879  -0.181  -0.204  1.00  0.00     0.113 C 
ATOM     22  C   UNL     1       4.647  -1.526  -0.921  1.00  0.00     0.018 C 
BRANCH  21  23
ATOM     23  C   UNL     1       5.547   0.813  -1.120  1.00  0.00     0.307 C 
ATOM     24  O   UNL     1       6.803   0.826  -1.212  1.00  0.00    -0.252 OA
BRANCH  23  25
ATOM     25  O   UNL     1       4.791   1.675  -1.914  1.00  0.00    -0.481 OA
ATOM     26  H   UNL     1       5.240   2.330  -2.543  1.00  0.00     0.296 HD
ENDBRANCH  23  25
ENDBRANCH  21  23
ENDBRANCH   1  17
TORSDOF 7
