REMARK SMILES C[C@@H](Cc1ccccc1)N(C)Cc1ccccc1
REMARK SMILES IDX 1 1 2 2 3 3 4 4 5 5 9 6 6 7 8 8 7 9 10 10 11 11 12 12 13 13
REMARK SMILES IDX 14 14 18 15 15 16 17 17 16 18
REMARK H PARENT
REMARK Flexibility Score: inf
ROOT
ATOM      1  C   UNL     1       0.706  -0.771   1.165  1.00  0.00     0.025 C 
ATOM      2  C   UNL     1       0.626   0.138  -0.080  1.00  0.00     0.058 C 
ENDROOT
BRANCH   2   3
ATOM      3  C   UNL     1       1.609  -0.402  -1.164  1.00  0.00     0.054 C 
BRANCH   3   4
ATOM      4  C   UNL     1       3.038  -0.455  -0.681  1.00  0.00    -0.046 A 
ATOM      5  C   UNL     1       3.631  -1.684  -0.340  1.00  0.00     0.004 A 
ATOM      6  C   UNL     1       3.783   0.729  -0.545  1.00  0.00     0.004 A 
ATOM      7  C   UNL     1       4.949  -1.724   0.125  1.00  0.00     0.000 A 
ATOM      8  C   UNL     1       5.101   0.683  -0.080  1.00  0.00     0.000 A 
ATOM      9  C   UNL     1       5.684  -0.543   0.255  1.00  0.00     0.000 A 
ENDBRANCH   3   4
ENDBRANCH   2   3
BRANCH   2  10
ATOM     10  N   UNL     1      -0.798   0.203  -0.534  1.00  0.00    -0.299 NA
ATOM     11  C   UNL     1      -0.970   0.519  -1.968  1.00  0.00     0.106 C 
BRANCH  10  12
ATOM     12  C   UNL     1      -1.579   1.174   0.273  1.00  0.00     0.120 C 
BRANCH  12  13
ATOM     13  C   UNL     1      -3.013   0.727   0.376  1.00  0.00    -0.034 A 
ATOM     14  C   UNL     1      -4.038   1.457  -0.248  1.00  0.00     0.005 A 
ATOM     15  C   UNL     1      -3.334  -0.440   1.089  1.00  0.00     0.005 A 
ATOM     16  C   UNL     1      -5.366   1.026  -0.155  1.00  0.00     0.000 A 
ATOM     17  C   UNL     1      -4.662  -0.867   1.180  1.00  0.00     0.000 A 
ATOM     18  C   UNL     1      -5.677  -0.134   0.559  1.00  0.00     0.000 A 
ENDBRANCH  12  13
ENDBRANCH  10  12
ENDBRANCH   2  10
TORSDOF 5
