REMARK SMILES C(=C/c1ccccc1)\CN1CCN(C(c2ccccc2)c2ccccc2)CC1
REMARK SMILES IDX 10 1 11 2 12 3 13 4 27 5 28 6 9 7 1 8 2 9 3 10 4 11 8 12
REMARK SMILES IDX 5 13 7 14 6 15 14 16 15 17 16 18 20 19 17 20 19 21 18 22
REMARK SMILES IDX 21 23 22 24 26 25 23 26 25 27 24 28
REMARK H PARENT
REMARK Flexibility Score: inf
ROOT
ATOM      1  N   UNL     1       0.932   1.523   2.053  1.00  0.00    -0.297 NA
ATOM      2  C   UNL     1       0.148   2.265   1.043  1.00  0.00     0.100 C 
ATOM      3  C   UNL     1      -0.882   1.367   0.322  1.00  0.00     0.101 C 
ATOM      4  N   UNL     1      -1.204   0.141   1.095  1.00  0.00    -0.290 NA
ATOM      5  C   UNL     1      -1.326   0.488   2.526  1.00  0.00     0.101 C 
ATOM      6  C   UNL     1       0.044   0.931   3.084  1.00  0.00     0.100 C 
ENDROOT
BRANCH   1   7
ATOM      7  C   UNL     1       1.847   0.517   1.465  1.00  0.00     0.112 C 
BRANCH   7   8
ATOM      8  C   UNL     1       2.899   1.172   0.613  1.00  0.00    -0.011 C 
ATOM      9  C   UNL     1       2.911   1.020  -0.718  1.00  0.00     0.005 C 
BRANCH   9  10
ATOM     10  C   UNL     1       3.889   1.681  -1.616  1.00  0.00    -0.026 A 
ATOM     11  C   UNL     1       5.134   2.162  -1.160  1.00  0.00     0.008 A 
ATOM     12  C   UNL     1       3.573   1.802  -2.981  1.00  0.00     0.008 A 
ATOM     13  C   UNL     1       6.025   2.770  -2.051  1.00  0.00     0.001 A 
ATOM     14  C   UNL     1       4.468   2.411  -3.866  1.00  0.00     0.001 A 
ATOM     15  C   UNL     1       5.692   2.897  -3.401  1.00  0.00     0.000 A 
ENDBRANCH   9  10
ENDBRANCH   7   8
ENDBRANCH   1   7
BRANCH   4  16
ATOM     16  C   UNL     1      -2.434  -0.525   0.582  1.00  0.00     0.117 C 
BRANCH  16  17
ATOM     17  C   UNL     1      -2.352  -0.805  -0.911  1.00  0.00    -0.026 A 
ATOM     18  C   UNL     1      -1.214  -1.414  -1.475  1.00  0.00     0.006 A 
ATOM     19  C   UNL     1      -3.444  -0.500  -1.744  1.00  0.00     0.006 A 
ATOM     20  C   UNL     1      -1.162  -1.687  -2.844  1.00  0.00     0.000 A 
ATOM     21  C   UNL     1      -3.388  -0.777  -3.113  1.00  0.00     0.000 A 
ATOM     22  C   UNL     1      -2.248  -1.368  -3.663  1.00  0.00     0.000 A 
ENDBRANCH  16  17
BRANCH  16  23
ATOM     23  C   UNL     1      -2.698  -1.849   1.282  1.00  0.00    -0.026 A 
ATOM     24  C   UNL     1      -4.021  -2.243   1.553  1.00  0.00     0.006 A 
ATOM     25  C   UNL     1      -1.645  -2.726   1.608  1.00  0.00     0.006 A 
ATOM     26  C   UNL     1      -4.282  -3.474   2.161  1.00  0.00     0.000 A 
ATOM     27  C   UNL     1      -1.912  -3.956   2.217  1.00  0.00     0.000 A 
ATOM     28  C   UNL     1      -3.229  -4.329   2.494  1.00  0.00     0.000 A 
ENDBRANCH  16  23
ENDBRANCH   4  16
TORSDOF 6
