REMARK SMILES CCN1CCCC1CNC(=O)c1cc(S(N)(=O)=O)ccc1OC
REMARK SMILES IDX 9 1 10 2 11 3 8 5 7 6 3 7 4 8 5 9 6 10 2 11 1 12 12 13 21 14
REMARK SMILES IDX 13 15 20 16 14 17 19 18 22 19 23 20 15 21 17 22 18 23 16 24
REMARK H PARENT 9 4 16 25 16 26
REMARK Flexibility Score: inf
ROOT
ATOM      1  N   UNL     1      -0.423  -1.278   0.950  1.00  0.00    -0.350 N 
ATOM      2  C   UNL     1       0.370  -1.688  -0.175  1.00  0.00     0.255 C 
ATOM      3  O   UNL     1      -0.042  -2.597  -0.947  1.00  0.00    -0.269 OA
ATOM      4  H   UNL     1      -0.108  -0.456   1.513  1.00  0.00     0.163 HD
ENDROOT
BRANCH   1   5
ATOM      5  C   UNL     1      -1.741  -1.837   1.252  1.00  0.00     0.135 C 
BRANCH   5   6
ATOM      6  C   UNL     1      -2.879  -0.968   0.677  1.00  0.00     0.076 C 
ATOM      7  N   UNL     1      -2.627   0.457   0.980  1.00  0.00    -0.299 NA
ATOM      8  C   UNL     1      -2.752   1.187  -0.292  1.00  0.00     0.085 C 
ATOM      9  C   UNL     1      -2.480   0.192  -1.396  1.00  0.00     0.017 C 
ATOM     10  C   UNL     1      -3.020  -1.104  -0.843  1.00  0.00     0.022 C 
BRANCH   7  11
ATOM     11  C   UNL     1      -3.545   0.968   2.016  1.00  0.00     0.081 C 
ATOM     12  C   UNL     1      -3.134   2.365   2.474  1.00  0.00     0.021 C 
ENDBRANCH   7  11
ENDBRANCH   5   6
ENDBRANCH   1   5
BRANCH   2  13
ATOM     13  C   UNL     1       1.656  -1.025  -0.465  1.00  0.00     0.083 A 
ATOM     14  C   UNL     1       2.605  -0.795   0.553  1.00  0.00     0.131 A 
ATOM     15  C   UNL     1       1.933  -0.621  -1.779  1.00  0.00     0.039 A 
ATOM     16  C   UNL     1       3.809  -0.138   0.233  1.00  0.00     0.048 A 
ATOM     17  C   UNL     1       3.134   0.028  -2.088  1.00  0.00     0.083 A 
ATOM     18  C   UNL     1       4.068   0.271  -1.075  1.00  0.00     0.025 A 
BRANCH  14  19
ATOM     19  O   UNL     1       2.336  -1.246   1.855  1.00  0.00    -0.496 OA
ATOM     20  C   UNL     1       3.227  -1.111   2.958  1.00  0.00     0.278 C 
ENDBRANCH  14  19
BRANCH  17  21
ATOM     21  S   UNL     1       3.454   0.587  -3.725  1.00  0.00     0.238 S 
ATOM     22  O   UNL     1       2.564  -0.131  -4.699  1.00  0.00    -0.207 OA
ATOM     23  O   UNL     1       4.887   0.308  -4.082  1.00  0.00    -0.207 OA
BRANCH  21  24
ATOM     24  N   UNL     1       3.154   2.287  -3.818  1.00  0.00    -0.225 NA
ATOM     25  H   UNL     1       2.160   2.433  -3.536  1.00  0.00     0.137 HD
ATOM     26  H   UNL     1       3.747   2.739  -3.090  1.00  0.00     0.137 HD
ENDBRANCH  21  24
ENDBRANCH  17  21
ENDBRANCH   2  13
TORSDOF 7
