REMARK SMILES CC(C)C[C@H](NC(=O)[C@@H](COC(C)(C)C)NC(=O)[C@H](Cc1ccc(O)cc1)NC(=O)[C@H](CO)NC(=O)[C@H](Cc1c[nH]c2ccccc12)NC(=O)[C@H](Cc1cnc[nH]1)NC(=O)[C@@H]1CCC(=O)N1)C(=O)N[C@@H](CCCN=C(N)N)C(=O)N1CCC[C@H]1C(=O)NNC(N)=O
REMARK SMILES IDX 16 1 17 2 18 3 9 5 7 6 6 7 8 9 5 10 4 11 2 12 1 13 3 14
REMARK SMILES IDX 67 15 68 16 69 17 70 19 71 20 72 21 73 22 74 23 75 24 76 25
REMARK SMILES IDX 77 26 78 31 79 32 80 33 81 34 84 35 82 36 83 37 85 38 86 39
REMARK SMILES IDX 87 40 88 42 89 43 90 45 91 46 10 49 11 50 12 51 13 52 14 53
REMARK SMILES IDX 15 54 19 55 20 56 21 57 22 58 27 59 23 60 26 61 24 62 25 63
REMARK SMILES IDX 28 65 29 66 30 68 31 69 32 70 33 71 34 73 35 74 36 76 37 77
REMARK SMILES IDX 38 78 39 79 40 80 47 81 41 82 42 83 46 84 43 86 45 87 44 88
REMARK SMILES IDX 48 89 49 90 50 92 51 93 52 94 53 95 54 96 57 97 55 98 56 99
REMARK SMILES IDX 58 101 59 102 60 104 61 105 62 106 66 107 63 108 64 109
REMARK SMILES IDX 65 111
REMARK H PARENT 16 4 6 8 69 18 76 27 76 28 77 29 77 30 87 41 88 44 90 47 90 48
REMARK H PARENT 25 64 28 67 33 72 34 75 41 85 48 91 57 100 58 103 66 110
REMARK Flexibility Score: inf
ROOT
ATOM      1  N   UNL     1       0.164   0.571   0.868  1.00  0.00    -0.340 N 
ATOM      2  C   UNL     1       0.221   2.003   0.767  1.00  0.00     0.243 C 
ATOM      3  O   UNL     1       1.321   2.572   0.529  1.00  0.00    -0.273 OA
ATOM      4  H   UNL     1      -0.746   0.112   1.093  1.00  0.00     0.164 HD
ENDROOT
BRANCH   1   5
ATOM      5  C   UNL     1       1.313  -0.311   0.633  1.00  0.00     0.197 C 
BRANCH   5   6
ATOM      6  C   UNL     1       1.857  -0.110  -0.768  1.00  0.00     0.245 C 
ATOM      7  N   UNL     1       3.269  -0.081  -1.063  1.00  0.00    -0.342 N 
ATOM      8  H   UNL     1       3.946   0.013  -0.281  1.00  0.00     0.164 HD
ATOM      9  O   UNL     1       1.027  -0.037  -1.713  1.00  0.00    -0.273 OA
BRANCH   7  10
ATOM     10  C   UNL     1       3.772  -0.359  -2.415  1.00  0.00     0.171 C 
BRANCH  10  11
ATOM     11  C   UNL     1       3.597   0.837  -3.393  1.00  0.00     0.038 C 
BRANCH  11  12
ATOM     12  C   UNL     1       4.365   2.166  -3.160  1.00  0.00    -0.015 C 
ATOM     13  C   UNL     1       5.824   2.104  -3.619  1.00  0.00     0.007 C 
ATOM     14  C   UNL     1       4.239   2.733  -1.740  1.00  0.00     0.007 C 
ENDBRANCH  11  12
ENDBRANCH  10  11
BRANCH  10  15
ATOM     15  C   UNL     1       5.153  -0.993  -2.418  1.00  0.00     0.243 C 
ATOM     16  O   UNL     1       5.386  -1.898  -3.265  1.00  0.00    -0.273 OA
ATOM     17  N   UNL     1       6.182  -0.613  -1.485  1.00  0.00    -0.343 N 
ATOM     18  H   UNL     1       6.080   0.302  -1.000  1.00  0.00     0.164 HD
BRANCH  17  19
ATOM     19  C   UNL     1       7.252  -1.535  -1.048  1.00  0.00     0.171 C 
BRANCH  19  20
ATOM     20  C   UNL     1       8.177  -1.992  -2.208  1.00  0.00     0.037 C 
BRANCH  20  21
ATOM     21  C   UNL     1       8.592  -0.922  -3.239  1.00  0.00     0.026 C 
BRANCH  21  22
ATOM     22  C   UNL     1       9.582   0.121  -2.709  1.00  0.00     0.146 C 
BRANCH  22  23
ATOM     23  N   UNL     1       8.862   1.262  -2.156  1.00  0.00    -0.254 NA
ATOM     24  C   UNL     1       9.403   2.328  -1.646  1.00  0.00     0.185 C 
ATOM     25  N   UNL     1       8.556   3.352  -1.122  1.00  0.00    -0.370 N 
ATOM     26  N   UNL     1      10.825   2.493  -1.576  1.00  0.00    -0.370 N 
ATOM     27  H   UNL     1       8.962   4.198  -0.671  1.00  0.00     0.159 HD
ATOM     28  H   UNL     1       7.517   3.250  -1.162  1.00  0.00     0.159 HD
ATOM     29  H   UNL     1      11.230   3.325  -1.092  1.00  0.00     0.159 HD
ATOM     30  H   UNL     1      11.486   1.837  -2.049  1.00  0.00     0.159 HD
ENDBRANCH  22  23
ENDBRANCH  21  22
ENDBRANCH  20  21
ENDBRANCH  19  20
BRANCH  19  31
ATOM     31  C   UNL     1       8.077  -0.965   0.096  1.00  0.00     0.245 C 
ATOM     32  O   UNL     1       8.069   0.274   0.327  1.00  0.00    -0.272 OA
BRANCH  31  33
ATOM     33  N   UNL     1       8.921  -1.816   0.891  1.00  0.00    -0.329 N 
ATOM     34  C   UNL     1       8.627  -3.212   1.183  1.00  0.00     0.120 C 
ATOM     35  C   UNL     1      10.081  -1.324   1.622  1.00  0.00     0.176 C 
ATOM     36  C   UNL     1       9.702  -3.667   2.162  1.00  0.00     0.024 C 
ATOM     37  C   UNL     1      10.365  -2.391   2.678  1.00  0.00     0.037 C 
BRANCH  35  38
ATOM     38  C   UNL     1      11.249  -1.173   0.678  1.00  0.00     0.261 C 
ATOM     39  O   UNL     1      11.534  -2.112  -0.116  1.00  0.00    -0.271 OA
ATOM     40  N   UNL     1      12.051   0.015   0.701  1.00  0.00    -0.264 N 
ATOM     41  H   UNL     1      11.828   0.763   1.398  1.00  0.00     0.191 HD
BRANCH  40  42
ATOM     42  N   UNL     1      13.101   0.202  -0.217  1.00  0.00    -0.249 N 
ATOM     43  C   UNL     1      13.885   1.404  -0.228  1.00  0.00     0.330 C 
ATOM     44  H   UNL     1      13.308  -0.530  -0.932  1.00  0.00     0.193 HD
ATOM     45  N   UNL     1      14.882   1.598  -1.230  1.00  0.00    -0.350 N 
ATOM     46  O   UNL     1      13.696   2.297   0.643  1.00  0.00    -0.247 OA
ATOM     47  H   UNL     1      15.458   2.470  -1.245  1.00  0.00     0.161 HD
ATOM     48  H   UNL     1      15.043   0.875  -1.966  1.00  0.00     0.161 HD
ENDBRANCH  40  42
ENDBRANCH  35  38
ENDBRANCH  31  33
ENDBRANCH  19  31
ENDBRANCH  17  19
ENDBRANCH  10  15
ENDBRANCH   7  10
ENDBRANCH   5   6
BRANCH   5  49
ATOM     49  C   UNL     1       2.335  -0.171   1.775  1.00  0.00     0.196 C 
BRANCH  49  50
ATOM     50  O   UNL     1       3.209  -1.286   1.757  1.00  0.00    -0.373 OA
BRANCH  50  51
ATOM     51  C   UNL     1       4.208  -1.271   2.775  1.00  0.00     0.060 C 
ATOM     52  C   UNL     1       3.608  -1.233   4.202  1.00  0.00     0.042 C 
ATOM     53  C   UNL     1       4.976  -2.594   2.624  1.00  0.00     0.042 C 
ATOM     54  C   UNL     1       5.215  -0.114   2.583  1.00  0.00     0.042 C 
ENDBRANCH  50  51
ENDBRANCH  49  50
ENDBRANCH   5  49
ENDBRANCH   1   5
BRANCH   2  55
ATOM     55  C   UNL     1      -0.999   2.866   1.006  1.00  0.00     0.175 C 
BRANCH  55  56
ATOM     56  C   UNL     1      -1.239   3.142   2.505  1.00  0.00     0.070 C 
BRANCH  56  57
ATOM     57  C   UNL     1      -1.397   1.892   3.338  1.00  0.00    -0.045 A 
ATOM     58  C   UNL     1      -0.283   1.331   3.984  1.00  0.00     0.007 A 
ATOM     59  C   UNL     1      -2.649   1.263   3.457  1.00  0.00     0.007 A 
ATOM     60  C   UNL     1      -0.414   0.151   4.721  1.00  0.00     0.046 A 
ATOM     61  C   UNL     1      -2.777   0.081   4.193  1.00  0.00     0.046 A 
ATOM     62  C   UNL     1      -1.658  -0.480   4.825  1.00  0.00     0.115 A 
BRANCH  62  63
ATOM     63  O   UNL     1      -1.771  -1.660   5.556  1.00  0.00    -0.508 OA
ATOM     64  H   UNL     1      -2.656  -2.143   5.646  1.00  0.00     0.293 HD
ENDBRANCH  62  63
ENDBRANCH  56  57
ENDBRANCH  55  56
BRANCH  55  65
ATOM     65  N   UNL     1      -2.196   2.289   0.381  1.00  0.00    -0.342 N 
ATOM     66  C   UNL     1      -3.014   3.037  -0.536  1.00  0.00     0.245 C 
ATOM     67  H   UNL     1      -2.538   1.363   0.716  1.00  0.00     0.164 HD
ATOM     68  O   UNL     1      -2.471   3.877  -1.307  1.00  0.00    -0.273 OA
BRANCH  66  69
ATOM     69  C   UNL     1      -4.523   2.922  -0.536  1.00  0.00     0.197 C 
BRANCH  69  70
ATOM     70  C   UNL     1      -5.112   3.791   0.581  1.00  0.00     0.191 C 
BRANCH  70  71
ATOM     71  O   UNL     1      -6.512   3.793   0.513  1.00  0.00    -0.394 OA
ATOM     72  H   UNL     1      -6.828   3.007   1.034  1.00  0.00     0.210 HD
ENDBRANCH  70  71
ENDBRANCH  69  70
BRANCH  69  73
ATOM     73  N   UNL     1      -4.964   1.530  -0.377  1.00  0.00    -0.340 N 
ATOM     74  C   UNL     1      -6.053   0.973  -1.128  1.00  0.00     0.243 C 
ATOM     75  H   UNL     1      -4.660   1.007   0.472  1.00  0.00     0.164 HD
ATOM     76  O   UNL     1      -6.520   1.592  -2.124  1.00  0.00    -0.273 OA
BRANCH  74  77
ATOM     77  C   UNL     1      -6.635  -0.363  -0.735  1.00  0.00     0.175 C 
BRANCH  77  78
ATOM     78  C   UNL     1      -6.016  -1.517  -1.544  1.00  0.00     0.072 C 
BRANCH  78  79
ATOM     79  C   UNL     1      -6.328  -1.446  -3.013  1.00  0.00    -0.020 A 
ATOM     80  C   UNL     1      -5.584  -0.783  -3.985  1.00  0.00     0.087 A 
ATOM     81  C   UNL     1      -7.460  -1.909  -3.660  1.00  0.00     0.003 A 
ATOM     82  N   UNL     1      -6.214  -0.832  -5.178  1.00  0.00    -0.361 N 
ATOM     83  C   UNL     1      -7.355  -1.514  -4.971  1.00  0.00     0.046 A 
ATOM     84  C   UNL     1      -8.576  -2.599  -3.191  1.00  0.00     0.010 A 
ATOM     85  H   UNL     1      -5.895  -0.398  -6.074  1.00  0.00     0.166 HD
ATOM     86  C   UNL     1      -8.362  -1.781  -5.899  1.00  0.00     0.026 A 
ATOM     87  C   UNL     1      -9.608  -2.880  -4.105  1.00  0.00     0.001 A 
ATOM     88  C   UNL     1      -9.500  -2.474  -5.452  1.00  0.00     0.002 A 
ENDBRANCH  78  79
ENDBRANCH  77  78
BRANCH  77  89
ATOM     89  N   UNL     1      -8.095  -0.347  -0.889  1.00  0.00    -0.342 N 
ATOM     90  C   UNL     1      -9.001  -0.803   0.132  1.00  0.00     0.243 C 
ATOM     91  H   UNL     1      -8.485  -0.080  -1.819  1.00  0.00     0.164 HD
ATOM     92  O   UNL     1      -8.550  -1.180   1.249  1.00  0.00    -0.273 OA
BRANCH  90  93
ATOM     93  C   UNL     1     -10.488  -0.918  -0.147  1.00  0.00     0.177 C 
BRANCH  93  94
ATOM     94  C   UNL     1     -11.051   0.220  -1.036  1.00  0.00     0.090 C 
BRANCH  94  95
ATOM     95  C   UNL     1     -10.528   1.590  -0.693  1.00  0.00     0.037 A 
ATOM     96  C   UNL     1     -10.559   2.219   0.535  1.00  0.00     0.134 A 
ATOM     97  N   UNL     1      -9.989   2.436  -1.589  1.00  0.00    -0.348 N 
ATOM     98  N   UNL     1     -10.013   3.447   0.418  1.00  0.00    -0.245 NA
ATOM     99  C   UNL     1      -9.683   3.543  -0.890  1.00  0.00     0.196 A 
ATOM    100  H   UNL     1      -9.838   2.271  -2.611  1.00  0.00     0.167 HD
ENDBRANCH  94  95
ENDBRANCH  93  94
BRANCH  93 101
ATOM    101  N   UNL     1     -11.254  -0.993   1.104  1.00  0.00    -0.342 N 
ATOM    102  C   UNL     1     -12.542  -1.629   1.174  1.00  0.00     0.243 C 
ATOM    103  H   UNL     1     -10.927  -0.446   1.933  1.00  0.00     0.164 HD
ATOM    104  O   UNL     1     -12.945  -2.348   0.223  1.00  0.00    -0.273 OA
BRANCH 102 105
ATOM    105  C   UNL     1     -13.447  -1.391   2.352  1.00  0.00     0.171 C 
ATOM    106  C   UNL     1     -13.981   0.065   2.374  1.00  0.00     0.045 C 
ATOM    107  N   UNL     1     -12.723  -1.571   3.595  1.00  0.00    -0.344 N 
ATOM    108  C   UNL     1     -13.434   0.734   3.647  1.00  0.00     0.102 C 
ATOM    109  C   UNL     1     -12.721  -0.367   4.328  1.00  0.00     0.220 C 
ATOM    110  H   UNL     1     -12.282  -2.463   3.911  1.00  0.00     0.164 HD
ATOM    111  O   UNL     1     -12.157  -0.249   5.448  1.00  0.00    -0.275 OA
ENDBRANCH 102 105
ENDBRANCH  93 101
ENDBRANCH  90  93
ENDBRANCH  77  89
ENDBRANCH  74  77
ENDBRANCH  69  73
ENDBRANCH  66  69
ENDBRANCH  55  65
ENDBRANCH   2  55
TORSDOF 36
