REMARK SMILES CC(C)(C)c1ccc(C(O)CCCN2CCC(C(O)(c3ccccc3)c3ccccc3)CC2)cc1
REMARK SMILES IDX 12 1 11 2 9 3 8 4 5 5 6 6 35 7 7 8 34 9 2 10 1 11 3 12 4 13
REMARK SMILES IDX 10 14 13 16 14 17 15 18 33 19 16 20 32 21 17 22 18 23 19 24
REMARK SMILES IDX 20 26 21 27 25 28 22 29 24 30 23 31 26 32 27 33 31 34 28 35
REMARK SMILES IDX 30 36 29 37
REMARK H PARENT 10 15 19 25
REMARK Flexibility Score: inf
ROOT
ATOM      1  C   UNL     1      -1.520  -0.619  -0.271  1.00  0.00     0.019 C 
ENDROOT
BRANCH   1   2
ATOM      2  C   UNL     1      -1.674   0.115  -1.616  1.00  0.00     0.038 C 
BRANCH   2   3
ATOM      3  C   UNL     1      -2.805  -0.476  -2.490  1.00  0.00     0.144 C 
BRANCH   3   4
ATOM      4  C   UNL     1      -4.171  -0.372  -1.830  1.00  0.00    -0.020 A 
ATOM      5  C   UNL     1      -6.690  -0.212  -0.527  1.00  0.00    -0.043 A 
ATOM      6  C   UNL     1      -6.174  -1.453  -0.969  1.00  0.00     0.004 A 
ATOM      7  C   UNL     1      -5.923   0.946  -0.780  1.00  0.00     0.004 A 
ATOM      8  C   UNL     1      -4.935  -1.529  -1.607  1.00  0.00     0.007 A 
ATOM      9  C   UNL     1      -4.688   0.869  -1.427  1.00  0.00     0.007 A 
BRANCH   5  10
ATOM     10  C   UNL     1      -8.024  -0.087   0.236  1.00  0.00    -0.013 C 
ATOM     11  C   UNL     1      -8.735  -1.447   0.442  1.00  0.00     0.016 C 
ATOM     12  C   UNL     1      -7.755   0.517   1.634  1.00  0.00     0.016 C 
ATOM     13  C   UNL     1      -8.988   0.835  -0.545  1.00  0.00     0.016 C 
ENDBRANCH   5  10
ENDBRANCH   3   4
BRANCH   3  14
ATOM     14  O   UNL     1      -2.832   0.141  -3.756  1.00  0.00    -0.388 OA
ATOM     15  H   UNL     1      -2.894   1.123  -3.610  1.00  0.00     0.211 HD
ENDBRANCH   3  14
ENDBRANCH   2   3
ENDBRANCH   1   2
BRANCH   1  16
ATOM     16  C   UNL     1      -0.541   0.112   0.656  1.00  0.00     0.084 C 
BRANCH  16  17
ATOM     17  N   UNL     1       0.820   0.104   0.075  1.00  0.00    -0.303 NA
ATOM     18  C   UNL     1       1.508   1.406   0.268  1.00  0.00     0.085 C 
ATOM     19  C   UNL     1       1.611  -1.078   0.507  1.00  0.00     0.085 C 
ATOM     20  C   UNL     1       3.029   1.262   0.184  1.00  0.00     0.023 C 
ATOM     21  C   UNL     1       2.539  -0.757   1.693  1.00  0.00     0.023 C 
ATOM     22  C   UNL     1       3.545   0.395   1.372  1.00  0.00     0.033 C 
BRANCH  22  23
ATOM     23  C   UNL     1       5.043  -0.107   1.224  1.00  0.00     0.117 C 
BRANCH  23  24
ATOM     24  O   UNL     1       5.365  -0.887   2.357  1.00  0.00    -0.380 OA
ATOM     25  H   UNL     1       5.255  -0.317   3.165  1.00  0.00     0.212 HD
ENDBRANCH  23  24
BRANCH  23  26
ATOM     26  C   UNL     1       5.165  -1.002  -0.029  1.00  0.00    -0.012 A 
ATOM     27  C   UNL     1       4.966  -2.398   0.056  1.00  0.00     0.007 A 
ATOM     28  C   UNL     1       5.446  -0.450  -1.303  1.00  0.00     0.007 A 
ATOM     29  C   UNL     1       5.042  -3.206  -1.085  1.00  0.00     0.000 A 
ATOM     30  C   UNL     1       5.534  -1.265  -2.438  1.00  0.00     0.000 A 
ATOM     31  C   UNL     1       5.330  -2.641  -2.328  1.00  0.00     0.000 A 
ENDBRANCH  23  26
BRANCH  23  32
ATOM     32  C   UNL     1       6.103   1.020   1.178  1.00  0.00    -0.012 A 
ATOM     33  C   UNL     1       7.439   0.678   0.866  1.00  0.00     0.007 A 
ATOM     34  C   UNL     1       5.846   2.353   1.579  1.00  0.00     0.007 A 
ATOM     35  C   UNL     1       8.448   1.646   0.852  1.00  0.00     0.000 A 
ATOM     36  C   UNL     1       6.858   3.317   1.558  1.00  0.00     0.000 A 
ATOM     37  C   UNL     1       8.156   2.967   1.185  1.00  0.00     0.000 A 
ENDBRANCH  23  32
ENDBRANCH  22  23
ENDBRANCH  16  17
ENDBRANCH   1  16
TORSDOF 11
