REMARK SMILES CCCCNc1ccc(C(=O)OCCOCCOCCOCCOCCOCCOCCOCCOCCOC)cc1
REMARK SMILES IDX 22 1 21 2 20 3 19 4 18 5 17 6 16 7 15 8 14 9 13 10 12 11
REMARK SMILES IDX 10 12 11 13 9 14 6 15 7 16 42 17 8 18 41 19 5 20 4 22 3 23
REMARK SMILES IDX 2 24 1 25 23 26 24 27 25 28 26 29 27 30 28 31 29 32 30 33
REMARK SMILES IDX 31 34 32 35 33 36 34 37 35 38 36 39 37 40 38 41 39 42 40 43
REMARK H PARENT 5 21
REMARK Flexibility Score: inf
ROOT
ATOM      1  C   UNL     1      -1.194  -1.900   0.324  1.00  0.00     0.188 C 
ENDROOT
BRANCH   1   2
ATOM      2  O   UNL     1      -2.417  -1.192   0.375  1.00  0.00    -0.377 OA
BRANCH   2   3
ATOM      3  C   UNL     1      -2.956  -1.212   1.681  1.00  0.00     0.188 C 
BRANCH   3   4
ATOM      4  C   UNL     1      -4.175  -0.280   1.748  1.00  0.00     0.188 C 
BRANCH   4   5
ATOM      5  O   UNL     1      -3.809   1.074   1.952  1.00  0.00    -0.377 OA
BRANCH   5   6
ATOM      6  C   UNL     1      -3.192   1.627   0.804  1.00  0.00     0.188 C 
BRANCH   6   7
ATOM      7  C   UNL     1      -3.524   3.110   0.716  1.00  0.00     0.188 C 
BRANCH   7   8
ATOM      8  O   UNL     1      -2.781   3.681  -0.341  1.00  0.00    -0.376 OA
BRANCH   8   9
ATOM      9  C   UNL     1      -3.384   4.871  -0.815  1.00  0.00     0.202 C 
BRANCH   9  10
ATOM     10  C   UNL     1      -3.959   4.632  -2.213  1.00  0.00     0.261 C 
BRANCH  10  11
ATOM     11  O   UNL     1      -4.913   3.573  -2.187  1.00  0.00    -0.460 OA
BRANCH  11  12
ATOM     12  C   UNL     1      -6.227   3.727  -1.729  1.00  0.00     0.338 C 
ATOM     13  O   UNL     1      -6.684   4.879  -1.493  1.00  0.00    -0.246 OA
BRANCH  12  14
ATOM     14  C   UNL     1      -7.074   2.534  -1.518  1.00  0.00     0.060 A 
ATOM     15  C   UNL     1      -8.676   0.248  -1.084  1.00  0.00     0.034 A 
ATOM     16  C   UNL     1      -9.243   1.536  -1.051  1.00  0.00     0.026 A 
ATOM     17  C   UNL     1      -7.303   0.120  -1.333  1.00  0.00     0.026 A 
ATOM     18  C   UNL     1      -8.449   2.666  -1.262  1.00  0.00     0.018 A 
ATOM     19  C   UNL     1      -6.510   1.249  -1.558  1.00  0.00     0.018 A 
BRANCH  15  20
ATOM     20  N   UNL     1      -9.467  -0.936  -0.873  1.00  0.00    -0.385 N 
ATOM     21  H   UNL     1      -8.976  -1.859  -0.860  1.00  0.00     0.160 HD
BRANCH  20  22
ATOM     22  C   UNL     1     -10.924  -0.908  -0.722  1.00  0.00     0.113 C 
BRANCH  22  23
ATOM     23  C   UNL     1     -11.484  -2.324  -0.548  1.00  0.00     0.021 C 
BRANCH  23  24
ATOM     24  C   UNL     1     -13.012  -2.301  -0.431  1.00  0.00    -0.002 C 
ATOM     25  C   UNL     1     -13.570  -3.707  -0.228  1.00  0.00     0.004 C 
ENDBRANCH  23  24
ENDBRANCH  22  23
ENDBRANCH  20  22
ENDBRANCH  15  20
ENDBRANCH  12  14
ENDBRANCH  11  12
ENDBRANCH  10  11
ENDBRANCH   9  10
ENDBRANCH   8   9
ENDBRANCH   7   8
ENDBRANCH   6   7
ENDBRANCH   5   6
ENDBRANCH   4   5
ENDBRANCH   3   4
ENDBRANCH   2   3
ENDBRANCH   1   2
BRANCH   1  26
ATOM     26  C   UNL     1      -0.016  -0.929   0.439  1.00  0.00     0.188 C 
BRANCH  26  27
ATOM     27  O   UNL     1       1.178  -1.566   0.027  1.00  0.00    -0.377 OA
BRANCH  27  28
ATOM     28  C   UNL     1       1.916  -2.020   1.142  1.00  0.00     0.188 C 
BRANCH  28  29
ATOM     29  C   UNL     1       3.113  -2.842   0.660  1.00  0.00     0.188 C 
BRANCH  29  30
ATOM     30  O   UNL     1       3.854  -2.122  -0.307  1.00  0.00    -0.377 OA
BRANCH  30  31
ATOM     31  C   UNL     1       4.884  -1.352   0.287  1.00  0.00     0.188 C 
BRANCH  31  32
ATOM     32  C   UNL     1       6.218  -2.088   0.183  1.00  0.00     0.188 C 
BRANCH  32  33
ATOM     33  O   UNL     1       7.265  -1.197   0.508  1.00  0.00    -0.377 OA
BRANCH  33  34
ATOM     34  C   UNL     1       8.506  -1.864   0.393  1.00  0.00     0.188 C 
BRANCH  34  35
ATOM     35  C   UNL     1       9.637  -0.857   0.564  1.00  0.00     0.188 C 
BRANCH  35  36
ATOM     36  O   UNL     1       9.627  -0.366   1.891  1.00  0.00    -0.377 OA
BRANCH  36  37
ATOM     37  C   UNL     1      10.411   0.810   2.012  1.00  0.00     0.188 C 
BRANCH  37  38
ATOM     38  C   UNL     1      11.857   0.485   2.417  1.00  0.00     0.188 C 
BRANCH  38  39
ATOM     39  O   UNL     1      12.547  -0.190   1.382  1.00  0.00    -0.377 OA
BRANCH  39  40
ATOM     40  C   UNL     1      13.194   0.734   0.530  1.00  0.00     0.188 C 
BRANCH  40  41
ATOM     41  C   UNL     1      13.770  -0.005  -0.670  1.00  0.00     0.188 C 
BRANCH  41  42
ATOM     42  O   UNL     1      12.724  -0.658  -1.361  1.00  0.00    -0.382 OA
ATOM     43  C   UNL     1      13.252  -1.333  -2.480  1.00  0.00     0.195 C 
ENDBRANCH  41  42
ENDBRANCH  40  41
ENDBRANCH  39  40
ENDBRANCH  38  39
ENDBRANCH  37  38
ENDBRANCH  36  37
ENDBRANCH  35  36
ENDBRANCH  34  35
ENDBRANCH  33  34
ENDBRANCH  32  33
ENDBRANCH  31  32
ENDBRANCH  30  31
ENDBRANCH  29  30
ENDBRANCH  28  29
ENDBRANCH  27  28
ENDBRANCH  26  27
ENDBRANCH   1  26
TORSDOF 33
