REMARK SMILES COc1ccc([C@@H]2Sc3ccccc3N(CCN(C)C)C(=O)[C@@H]2OC(C)=O)cc1
REMARK SMILES IDX 9 1 14 2 13 3 12 4 11 5 10 6 8 7 7 8 6 9 3 10 4 11 29 12
REMARK SMILES IDX 5 13 28 14 2 15 1 16 23 17 24 19 25 20 26 21 27 22 15 23
REMARK SMILES IDX 16 24 17 25 18 26 19 27 20 28 21 29 22 30
REMARK H PARENT
REMARK Flexibility Score: 80.00
ROOT
ATOM      1  C   UNL     1      -0.756  -1.002   2.545  1.00  0.00     0.032 A 
ATOM      2  C   UNL     1      -1.854  -0.385   1.865  1.00  0.00     0.057 A 
ATOM      3  C   UNL     1      -2.909   0.132   2.652  1.00  0.00     0.027 A 
ATOM      4  C   UNL     1      -2.860   0.096   4.045  1.00  0.00     0.002 A 
ATOM      5  C   UNL     1      -1.758  -0.451   4.692  1.00  0.00     0.001 A 
ATOM      6  C   UNL     1      -0.715  -0.996   3.947  1.00  0.00     0.017 A 
ENDROOT
BRANCH   1   7
ATOM      7  S   UNL     1       0.611  -1.871   1.737  1.00  0.00    -0.111 SA
BRANCH   7   8
ATOM      8  C   UNL     1       1.071  -0.516   0.593  1.00  0.00     0.132 C 
BRANCH   8   9
ATOM      9  C   UNL     1       2.573  -0.439   0.386  1.00  0.00    -0.030 A 
ATOM     10  C   UNL     1       5.351  -0.247  -0.087  1.00  0.00     0.118 A 
ATOM     11  C   UNL     1       4.725  -1.497  -0.041  1.00  0.00     0.047 A 
ATOM     12  C   UNL     1       4.577   0.914   0.096  1.00  0.00     0.047 A 
ATOM     13  C   UNL     1       3.350  -1.596   0.187  1.00  0.00     0.009 A 
ATOM     14  C   UNL     1       3.202   0.817   0.323  1.00  0.00     0.009 A 
BRANCH  10  15
ATOM     15  O   UNL     1       6.733  -0.202  -0.320  1.00  0.00    -0.497 OA
ATOM     16  C   UNL     1       7.497   0.998  -0.395  1.00  0.00     0.278 C 
ENDBRANCH  10  15
ENDBRANCH   8   9
BRANCH   8  17
ATOM     17  C   UNL     1       0.320  -0.705  -0.741  1.00  0.00     0.283 CG0
ATOM     18  G   UNL     1      -1.132  -1.017  -0.471  1.00  0.00     0.000 G0
BRANCH  17  19
ATOM     19  O   UNL     1       0.922  -1.756  -1.502  1.00  0.00    -0.451 OA
BRANCH  19  20
ATOM     20  C   UNL     1       0.744  -1.910  -2.881  1.00  0.00     0.303 C 
ATOM     21  C   UNL     1       1.403  -3.049  -3.581  1.00  0.00     0.139 C 
ATOM     22  O   UNL     1       0.002  -1.122  -3.529  1.00  0.00    -0.253 OA
ENDBRANCH  19  20
ENDBRANCH  17  19
ENDBRANCH   8  17
ENDBRANCH   7   8
ENDBRANCH   1   7
BRANCH   2  23
ATOM     23  N   UNL     1      -1.880  -0.185   0.421  1.00  0.00    -0.307 N 
BRANCH  23  24
ATOM     24  C   UNL     1      -2.623   0.925  -0.196  1.00  0.00     0.141 C 
BRANCH  24  25
ATOM     25  C   UNL     1      -3.988   0.433  -0.722  1.00  0.00     0.106 C 
BRANCH  25  26
ATOM     26  N   UNL     1      -4.886   1.510  -1.195  1.00  0.00    -0.308 NA
ATOM     27  C   UNL     1      -4.302   2.308  -2.284  1.00  0.00     0.105 C 
ATOM     28  C   UNL     1      -5.371   2.371  -0.104  1.00  0.00     0.105 C 
ENDBRANCH  25  26
ENDBRANCH  24  25
ENDBRANCH  23  24
BRANCH  23  29
ATOM     29  C   UNL     1      -1.132  -1.017  -0.471  1.00  0.00     0.269 CG0
ATOM     30  O   UNL     1      -1.696  -1.996  -1.028  1.00  0.00    -0.270 OA
ATOM     31  G   UNL     1       0.320  -0.705  -0.741  1.00  0.00     0.000 G0
ENDBRANCH  23  29
ENDBRANCH   2  23
TORSDOF 7
