REMARK SMILES COc1cc([C@@H]2c3cc4c(cc3[C@@H](O[C@@H]3O[C@@H]5CO[C@@H](C)O[C@H]5[C@H](O)[C@H]3O)[C@H]3COC(=O)[C@H]23)OCO4)cc(OC)c1O
REMARK SMILES IDX 28 1 29 2 30 3 31 4 32 5 33 6 6 7 7 8 8 9 9 10 10 11 34 12
REMARK SMILES IDX 35 13 36 14 11 15 12 16 13 17 14 18 15 19 16 20 26 21 17 22
REMARK SMILES IDX 24 23 18 24 23 25 19 26 22 27 20 28 21 29 27 30 25 32 5 34
REMARK SMILES IDX 4 35 37 36 3 37 38 38 41 39 2 40 1 41 39 42 40 43 42 44
REMARK H PARENT 27 31 25 33 42 45
REMARK Flexibility Score: inf
ROOT
ATOM      1  C   UNL     1      -0.409   0.952  -0.262  1.00  0.00     0.076 C 
ATOM      2  C   UNL     1       0.566   2.111  -0.534  1.00  0.00     0.240 C 
ATOM      3  O   UNL     1      -0.135   2.917  -1.474  1.00  0.00    -0.465 OA
ATOM      4  C   UNL     1      -1.127   2.175  -2.093  1.00  0.00     0.310 C 
ATOM      5  O   UNL     1      -1.823   2.613  -3.045  1.00  0.00    -0.252 OA
ATOM      6  C   UNL     1      -1.144   0.782  -1.588  1.00  0.00     0.120 C 
ATOM      7  C   UNL     1      -2.485   0.056  -1.372  1.00  0.00     0.065 C 
ATOM      8  C   UNL     1      -2.214  -1.249  -0.632  1.00  0.00    -0.030 A 
ATOM      9  C   UNL     1      -3.195  -2.265  -0.694  1.00  0.00     0.055 A 
ATOM     10  C   UNL     1      -2.975  -3.438   0.015  1.00  0.00     0.166 A 
ATOM     11  C   UNL     1      -1.862  -3.631   0.760  1.00  0.00     0.166 A 
ATOM     12  O   UNL     1      -1.910  -4.881   1.346  1.00  0.00    -0.454 OA
ATOM     13  C   UNL     1      -3.133  -5.511   0.944  1.00  0.00     0.468 C 
ATOM     14  O   UNL     1      -3.783  -4.555   0.095  1.00  0.00    -0.454 OA
ATOM     15  C   UNL     1      -0.866  -2.668   0.865  1.00  0.00     0.057 A 
ATOM     16  C   UNL     1      -1.027  -1.447   0.173  1.00  0.00    -0.011 A 
ATOM     17  C   UNL     1       0.095  -0.408   0.266  1.00  0.00     0.159 C 
ENDROOT
BRANCH  17  18
ATOM     18  O   UNL     1       1.208  -0.883  -0.482  1.00  0.00    -0.341 OA
BRANCH  18  19
ATOM     19  C   UNL     1       2.458  -0.495   0.077  1.00  0.00     0.282 C 
ATOM     20  O   UNL     1       3.327  -0.188  -1.008  1.00  0.00    -0.341 OA
ATOM     21  C   UNL     1       3.038  -1.653   0.938  1.00  0.00     0.202 C 
ATOM     22  C   UNL     1       4.579   0.255  -0.520  1.00  0.00     0.179 C 
ATOM     23  C   UNL     1       4.483  -1.333   1.383  1.00  0.00     0.180 C 
ATOM     24  C   UNL     1       5.477   0.786  -1.650  1.00  0.00     0.198 C 
ATOM     25  C   UNL     1       5.297  -0.904   0.158  1.00  0.00     0.184 C 
ATOM     26  O   UNL     1       6.619  -0.029  -1.861  1.00  0.00    -0.350 OA
ATOM     27  O   UNL     1       6.583  -0.460   0.515  1.00  0.00    -0.344 OA
ATOM     28  C   UNL     1       7.367  -0.247  -0.659  1.00  0.00     0.247 C 
ATOM     29  C   UNL     1       8.348   0.900  -0.424  1.00  0.00     0.071 C 
BRANCH  21  30
ATOM     30  O   UNL     1       2.238  -1.841   2.074  1.00  0.00    -0.385 OA
ATOM     31  H   UNL     1       2.445  -2.748   2.424  1.00  0.00     0.211 HD
ENDBRANCH  21  30
BRANCH  23  32
ATOM     32  O   UNL     1       5.058  -2.472   1.972  1.00  0.00    -0.387 OA
ATOM     33  H   UNL     1       5.863  -2.164   2.465  1.00  0.00     0.211 HD
ENDBRANCH  23  32
ENDBRANCH  18  19
ENDBRANCH  17  18
BRANCH   7  34
ATOM     34  C   UNL     1      -3.541   0.909  -0.670  1.00  0.00    -0.032 A 
ATOM     35  C   UNL     1      -4.380   1.732  -1.437  1.00  0.00     0.055 A 
ATOM     36  C   UNL     1      -3.684   0.915   0.731  1.00  0.00     0.055 A 
ATOM     37  C   UNL     1      -5.326   2.574  -0.824  1.00  0.00     0.164 A 
ATOM     38  C   UNL     1      -4.623   1.750   1.359  1.00  0.00     0.164 A 
ATOM     39  C   UNL     1      -5.437   2.585   0.573  1.00  0.00     0.200 A 
BRANCH  37  40
ATOM     40  O   UNL     1      -6.168   3.419  -1.567  1.00  0.00    -0.493 OA
ATOM     41  C   UNL     1      -6.160   3.521  -2.986  1.00  0.00     0.278 C 
ENDBRANCH  37  40
BRANCH  38  42
ATOM     42  O   UNL     1      -4.773   1.777   2.754  1.00  0.00    -0.493 OA
ATOM     43  C   UNL     1      -4.053   0.950   3.664  1.00  0.00     0.278 C 
ENDBRANCH  38  42
BRANCH  39  44
ATOM     44  O   UNL     1      -6.367   3.438   1.167  1.00  0.00    -0.502 OA
ATOM     45  H   UNL     1      -6.481   3.498   2.173  1.00  0.00     0.293 HD
ENDBRANCH  39  44
ENDBRANCH   7  34
TORSDOF 8
