REMARK SMILES N[C@@H]1[C@H]2CN(c3nc4c(cc3F)c(=O)c(C(=O)O)cn4-c3ccc(F)cc3F)C[C@@H]12
REMARK SMILES IDX 6 1 7 2 8 3 9 4 10 5 11 6 12 7 13 8 14 9 15 10 19 11 20 12
REMARK SMILES IDX 5 13 30 14 29 15 3 16 2 17 4 18 1 19 21 22 27 23 22 24 28 25
REMARK SMILES IDX 26 26 23 27 24 28 25 29 16 30 17 31 18 32
REMARK H PARENT 1 20 1 21 18 33
REMARK Flexibility Score: inf
ROOT
ATOM      1  C   UNL     1       1.101   0.842  -0.858  1.00  0.00     0.167 A 
ATOM      2  N   UNL     1      -0.040   0.372  -0.285  1.00  0.00    -0.209 NA
ATOM      3  C   UNL     1      -1.177   1.112  -0.166  1.00  0.00     0.151 A 
ATOM      4  C   UNL     1      -1.201   2.428  -0.667  1.00  0.00     0.069 A 
ATOM      5  C   UNL     1      -0.038   2.942  -1.265  1.00  0.00     0.059 A 
ATOM      6  C   UNL     1       1.113   2.158  -1.363  1.00  0.00     0.166 A 
ATOM      7  F   UNL     1       2.211   2.693  -1.950  1.00  0.00    -0.203 F 
ATOM      8  C   UNL     1      -2.381   3.185  -0.561  1.00  0.00     0.205 A 
ATOM      9  O   UNL     1      -2.411   4.366  -1.005  1.00  0.00    -0.288 OA
ATOM     10  C   UNL     1      -3.525   2.619   0.039  1.00  0.00     0.124 A 
ATOM     11  C   UNL     1      -3.446   1.302   0.522  1.00  0.00     0.113 A 
ATOM     12  N   UNL     1      -2.292   0.577   0.424  1.00  0.00    -0.297 N 
ENDROOT
BRANCH   1  13
ATOM     13  N   UNL     1       2.253  -0.026  -0.922  1.00  0.00    -0.353 N 
ATOM     14  C   UNL     1       4.443  -0.890  -1.305  1.00  0.00     0.032 C 
ATOM     15  C   UNL     1       3.551   0.330  -1.480  1.00  0.00     0.123 C 
ATOM     16  C   UNL     1       3.607  -1.968  -0.630  1.00  0.00     0.032 C 
ATOM     17  C   UNL     1       4.739  -1.295   0.131  1.00  0.00     0.061 C 
ATOM     18  C   UNL     1       2.220  -1.387  -0.406  1.00  0.00     0.123 C 
BRANCH  17  19
ATOM     19  N   UNL     1       5.920  -2.137   0.249  1.00  0.00    -0.327 NA
ATOM     20  H   UNL     1       5.817  -2.690   1.130  1.00  0.00     0.119 HD
ATOM     21  H   UNL     1       6.738  -1.502   0.387  1.00  0.00     0.119 HD
ENDBRANCH  17  19
ENDBRANCH   1  13
BRANCH  12  22
ATOM     22  C   UNL     1      -2.276  -0.767   0.943  1.00  0.00     0.083 A 
ATOM     23  C   UNL     1      -1.428  -1.112   2.011  1.00  0.00     0.150 A 
ATOM     24  C   UNL     1      -3.113  -1.747   0.383  1.00  0.00     0.033 A 
ATOM     25  F   UNL     1      -0.632  -0.177   2.587  1.00  0.00    -0.205 F 
ATOM     26  C   UNL     1      -1.412  -2.423   2.499  1.00  0.00     0.080 A 
ATOM     27  C   UNL     1      -3.093  -3.055   0.875  1.00  0.00     0.041 A 
ATOM     28  C   UNL     1      -2.242  -3.394   1.931  1.00  0.00     0.126 A 
ATOM     29  F   UNL     1      -2.224  -4.664   2.406  1.00  0.00    -0.207 F 
ENDBRANCH  12  22
BRANCH  10  30
ATOM     30  C   UNL     1      -4.803   3.368   0.176  1.00  0.00     0.341 C 
ATOM     31  O   UNL     1      -4.908   4.552  -0.244  1.00  0.00    -0.246 OA
BRANCH  30  32
ATOM     32  O   UNL     1      -5.906   2.765   0.774  1.00  0.00    -0.477 OA
ATOM     33  H   UNL     1      -6.782   3.264   0.874  1.00  0.00     0.297 HD
ENDBRANCH  30  32
ENDBRANCH  10  30
TORSDOF 5
