REMARK SMILES CCn1cc(C(=O)O)c(=O)c2cc(F)c(N3CCN(C)CC3)cc21
REMARK SMILES IDX 3 1 4 2 5 3 9 4 10 5 11 6 12 7 13 8 14 9 15 10 23 11 24 12
REMARK SMILES IDX 2 13 1 14 6 15 7 16 8 17 16 19 17 20 22 21 18 22 21 23 19 24
REMARK SMILES IDX 20 25
REMARK H PARENT 8 18
REMARK Flexibility Score: inf
ROOT
ATOM      1  N   UNL     1       2.864  -0.556   0.452  1.00  0.00    -0.347 N 
ATOM      2  C   UNL     1       4.133  -0.042   0.464  1.00  0.00     0.105 A 
ATOM      3  C   UNL     1       4.380   1.326   0.284  1.00  0.00     0.124 A 
ATOM      4  C   UNL     1       3.286   2.184   0.076  1.00  0.00     0.204 A 
ATOM      5  O   UNL     1       3.473   3.423  -0.079  1.00  0.00    -0.288 OA
ATOM      6  C   UNL     1       1.981   1.662   0.036  1.00  0.00     0.050 A 
ATOM      7  C   UNL     1       0.877   2.507  -0.187  1.00  0.00     0.055 A 
ATOM      8  C   UNL     1      -0.415   1.991  -0.246  1.00  0.00     0.147 A 
ATOM      9  F   UNL     1      -1.461   2.835  -0.434  1.00  0.00    -0.205 F 
ATOM     10  C   UNL     1      -0.633   0.619  -0.091  1.00  0.00     0.075 A 
ATOM     11  C   UNL     1       0.457  -0.233   0.140  1.00  0.00     0.056 A 
ATOM     12  C   UNL     1       1.780   0.268   0.217  1.00  0.00     0.054 A 
ENDROOT
BRANCH   1  13
ATOM     13  C   UNL     1       2.730  -2.011   0.668  1.00  0.00     0.119 C 
ATOM     14  C   UNL     1       2.652  -2.751  -0.665  1.00  0.00     0.027 C 
ENDBRANCH   1  13
BRANCH   3  15
ATOM     15  C   UNL     1       5.783   1.822   0.320  1.00  0.00     0.341 C 
ATOM     16  O   UNL     1       6.043   3.044   0.153  1.00  0.00    -0.246 OA
BRANCH  15  17
ATOM     17  O   UNL     1       6.834   0.935   0.539  1.00  0.00    -0.477 OA
ATOM     18  H   UNL     1       7.794   1.260   0.565  1.00  0.00     0.297 HD
ENDBRANCH  15  17
ENDBRANCH   3  15
BRANCH  10  19
ATOM     19  N   UNL     1      -1.968   0.088  -0.166  1.00  0.00    -0.367 N 
ATOM     20  C   UNL     1      -2.706   0.158  -1.430  1.00  0.00     0.132 C 
ATOM     21  C   UNL     1      -2.444  -0.851   0.855  1.00  0.00     0.132 C 
ATOM     22  C   UNL     1      -4.203   0.297  -1.149  1.00  0.00     0.105 C 
ATOM     23  C   UNL     1      -3.951  -0.678   1.055  1.00  0.00     0.105 C 
ATOM     24  N   UNL     1      -4.653  -0.776  -0.240  1.00  0.00    -0.303 NA
ATOM     25  C   UNL     1      -6.105  -0.679  -0.031  1.00  0.00     0.105 C 
ENDBRANCH  10  19
TORSDOF 4
