REMARK SMILES CC(C)NCC(O)COc1cccc2ccccc12
REMARK SMILES IDX 6 1 5 2 4 3 2 5 1 6 3 7 7 8 8 10 9 11 10 12 11 13 19 14
REMARK SMILES IDX 12 15 14 16 18 17 13 18 15 19 17 20 16 21
REMARK H PARENT 4 4 7 9
REMARK Flexibility Score: inf
ROOT
ATOM      1  C   UNL     1      -0.936  -0.169  -0.753  1.00  0.00     0.165 C 
ENDROOT
BRANCH   1   2
ATOM      2  C   UNL     1      -2.440   0.123  -0.921  1.00  0.00     0.116 C 
BRANCH   2   3
ATOM      3  N   UNL     1      -3.228  -0.650   0.052  1.00  0.00    -0.312 NA
ATOM      4  H   UNL     1      -3.164  -1.655  -0.240  1.00  0.00     0.123 HD
BRANCH   3   5
ATOM      5  C   UNL     1      -4.644  -0.231   0.063  1.00  0.00     0.047 C 
ATOM      6  C   UNL     1      -5.542  -1.390   0.521  1.00  0.00     0.024 C 
ATOM      7  C   UNL     1      -4.828   0.961   1.012  1.00  0.00     0.024 C 
ENDBRANCH   3   5
ENDBRANCH   2   3
ENDBRANCH   1   2
BRANCH   1   8
ATOM      8  O   UNL     1      -0.209   0.391  -1.817  1.00  0.00    -0.388 OA
ATOM      9  H   UNL     1      -0.409   1.363  -1.839  1.00  0.00     0.211 HD
ENDBRANCH   1   8
BRANCH   1  10
ATOM     10  C   UNL     1      -0.405   0.337   0.602  1.00  0.00     0.262 C 
BRANCH  10  11
ATOM     11  O   UNL     1       0.939  -0.100   0.815  1.00  0.00    -0.490 OA
BRANCH  11  12
ATOM     12  C   UNL     1       2.105   0.490   0.292  1.00  0.00     0.127 A 
ATOM     13  C   UNL     1       2.101   1.780  -0.277  1.00  0.00     0.047 A 
ATOM     14  C   UNL     1       3.320  -0.227   0.357  1.00  0.00     0.024 A 
ATOM     15  C   UNL     1       3.276   2.337  -0.785  1.00  0.00     0.004 A 
ATOM     16  C   UNL     1       4.510   0.348  -0.161  1.00  0.00    -0.015 A 
ATOM     17  C   UNL     1       3.374  -1.515   0.924  1.00  0.00     0.012 A 
ATOM     18  C   UNL     1       4.475   1.628  -0.730  1.00  0.00     0.009 A 
ATOM     19  C   UNL     1       5.716  -0.367  -0.100  1.00  0.00     0.009 A 
ATOM     20  C   UNL     1       4.583  -2.214   0.977  1.00  0.00     0.001 A 
ATOM     21  C   UNL     1       5.750  -1.642   0.467  1.00  0.00     0.001 A 
ENDBRANCH  11  12
ENDBRANCH  10  11
ENDBRANCH   1  10
TORSDOF 7
