REMARK SMILES NCC(CC(=O)O)c1ccc(Cl)cc1
REMARK SMILES IDX 4 1 3 2 2 3 1 4 8 7 9 8 14 9 10 10 13 11 11 12 12 13 5 14
REMARK SMILES IDX 6 15 7 16
REMARK H PARENT 1 5 1 6 7 17
REMARK Flexibility Score: inf
ROOT
ATOM      1  C   UNL     1      -1.950   0.789  -0.467  1.00  0.00     0.132 C 
ENDROOT
BRANCH   1   2
ATOM      2  C   UNL     1      -1.069  -0.478  -0.430  1.00  0.00     0.044 C 
BRANCH   2   3
ATOM      3  C   UNL     1      -1.737  -1.577   0.429  1.00  0.00     0.086 C 
BRANCH   3   4
ATOM      4  N   UNL     1      -0.998  -2.839   0.385  1.00  0.00    -0.330 NA
ATOM      5  H   UNL     1      -0.063  -2.707   0.834  1.00  0.00     0.118 HD
ATOM      6  H   UNL     1      -0.842  -3.111  -0.613  1.00  0.00     0.118 HD
ENDBRANCH   3   4
ENDBRANCH   2   3
BRANCH   2   7
ATOM      7  C   UNL     1       0.336  -0.163   0.060  1.00  0.00    -0.043 A 
ATOM      8  C   UNL     1       0.560   0.343   1.355  1.00  0.00     0.005 A 
ATOM      9  C   UNL     1       1.439  -0.371  -0.789  1.00  0.00     0.005 A 
ATOM     10  C   UNL     1       1.857   0.633   1.788  1.00  0.00     0.021 A 
ATOM     11  C   UNL     1       2.734  -0.079  -0.352  1.00  0.00     0.021 A 
ATOM     12  C   UNL     1       2.945   0.422   0.936  1.00  0.00     0.041 A 
ATOM     13  Cl  UNL     1       4.571   0.787   1.481  1.00  0.00    -0.084 Cl
ENDBRANCH   2   7
ENDBRANCH   1   2
BRANCH   1  14
ATOM     14  C   UNL     1      -1.388   1.824  -1.394  1.00  0.00     0.304 C 
ATOM     15  O   UNL     1      -1.619   1.755  -2.631  1.00  0.00    -0.252 OA
BRANCH  14  16
ATOM     16  O   UNL     1      -0.576   2.836  -0.893  1.00  0.00    -0.481 OA
ATOM     17  H   UNL     1      -0.172   3.531  -1.509  1.00  0.00     0.296 HD
ENDBRANCH  14  16
ENDBRANCH   1  14
TORSDOF 6
