REMARK SMILES NC[C@H]1CC[C@H](C(=O)O)CC1
REMARK SMILES IDX 3 1 11 2 10 3 6 4 5 5 4 6 2 7 1 8 7 11 8 12 9 13
REMARK H PARENT 1 9 1 10 9 14
REMARK Flexibility Score: inf
ROOT
ATOM      1  C   UNL     1      -1.202  -0.648   0.109  1.00  0.00     0.003 C 
ATOM      2  C   UNL     1      -0.706  -0.003  -1.201  1.00  0.00     0.006 C 
ATOM      3  C   UNL     1       0.785  -0.288  -1.422  1.00  0.00     0.015 C 
ATOM      4  C   UNL     1       1.623   0.195  -0.223  1.00  0.00     0.099 C 
ATOM      5  C   UNL     1       1.126  -0.447   1.086  1.00  0.00     0.015 C 
ATOM      6  C   UNL     1      -0.364  -0.156   1.307  1.00  0.00     0.006 C 
ENDROOT
BRANCH   1   7
ATOM      7  C   UNL     1      -2.711  -0.412   0.323  1.00  0.00     0.081 C 
BRANCH   7   8
ATOM      8  N   UNL     1      -3.035   1.012   0.392  1.00  0.00    -0.330 NA
ATOM      9  H   UNL     1      -4.069   1.110   0.278  1.00  0.00     0.118 HD
ATOM     10  H   UNL     1      -2.817   1.354   1.355  1.00  0.00     0.118 HD
ENDBRANCH   7   8
ENDBRANCH   1   7
BRANCH   4  11
ATOM     11  C   UNL     1       3.080  -0.107  -0.440  1.00  0.00     0.306 C 
ATOM     12  O   UNL     1       3.474  -1.298  -0.568  1.00  0.00    -0.252 OA
BRANCH  11  13
ATOM     13  O   UNL     1       3.999   0.936  -0.501  1.00  0.00    -0.481 OA
ATOM     14  H   UNL     1       4.985   0.751  -0.647  1.00  0.00     0.296 HD
ENDBRANCH  11  13
ENDBRANCH   4  11
TORSDOF 4
