REMARK SMILES CN(Cc1cnc2nc(N)nc(N)c2n1)c1ccc(C(=O)N[C@@H](CCC(=O)O)C(=O)O)cc1
REMARK SMILES IDX 20 1 21 2 22 3 19 5 16 6 17 7 33 8 18 9 32 10 2 11 1 12 3 13
REMARK SMILES IDX 4 14 5 15 15 16 6 17 14 18 7 19 12 20 8 21 11 22 9 23 13 24
REMARK SMILES IDX 10 27 23 30 24 31 25 32 26 33 27 34 28 35 29 37 30 38 31 39
REMARK H PARENT 22 4 13 25 13 26 10 28 10 29 28 36 31 40
REMARK Flexibility Score: inf
ROOT
ATOM      1  C   UNL     1       3.277  -1.431   0.216  1.00  0.00     0.251 C 
ATOM      2  O   UNL     1       4.137  -2.353   0.160  1.00  0.00    -0.269 OA
ATOM      3  N   UNL     1       3.646  -0.147   0.747  1.00  0.00    -0.339 N 
ATOM      4  H   UNL     1       2.892   0.513   1.039  1.00  0.00     0.164 HD
ENDROOT
BRANCH   1   5
ATOM      5  C   UNL     1       1.896  -1.697  -0.250  1.00  0.00     0.039 A 
ATOM      6  C   UNL     1      -0.740  -2.236  -1.142  1.00  0.00     0.037 A 
ATOM      7  C   UNL     1       0.111  -3.279  -0.732  1.00  0.00     0.027 A 
ATOM      8  C   UNL     1      -0.244  -0.918  -1.110  1.00  0.00     0.027 A 
ATOM      9  C   UNL     1       1.411  -3.014  -0.297  1.00  0.00     0.016 A 
ATOM     10  C   UNL     1       1.057  -0.653  -0.672  1.00  0.00     0.016 A 
BRANCH   6  11
ATOM     11  N   UNL     1      -2.099  -2.517  -1.566  1.00  0.00    -0.369 N 
ATOM     12  C   UNL     1      -2.832  -3.644  -0.977  1.00  0.00     0.144 C 
BRANCH  11  13
ATOM     13  C   UNL     1      -2.809  -1.650  -2.518  1.00  0.00     0.174 C 
BRANCH  13  14
ATOM     14  C   UNL     1      -3.802  -0.778  -1.799  1.00  0.00     0.079 A 
ATOM     15  C   UNL     1      -5.121  -0.645  -2.263  1.00  0.00     0.139 A 
ATOM     16  N   UNL     1      -3.421  -0.096  -0.685  1.00  0.00    -0.242 NA
ATOM     17  N   UNL     1      -5.996   0.146  -1.585  1.00  0.00    -0.233 NA
ATOM     18  C   UNL     1      -4.293   0.696  -0.007  1.00  0.00     0.150 A 
ATOM     19  C   UNL     1      -5.613   0.817  -0.468  1.00  0.00     0.185 A 
ATOM     20  C   UNL     1      -3.918   1.398   1.145  1.00  0.00     0.157 A 
ATOM     21  N   UNL     1      -6.496   1.602   0.201  1.00  0.00    -0.191 NA
ATOM     22  N   UNL     1      -4.841   2.170   1.781  1.00  0.00    -0.194 NA
ATOM     23  C   UNL     1      -6.117   2.277   1.320  1.00  0.00     0.224 A 
BRANCH  20  24
ATOM     24  N   UNL     1      -2.586   1.321   1.662  1.00  0.00    -0.382 N 
ATOM     25  H   UNL     1      -2.327   1.858   2.519  1.00  0.00     0.158 HD
ATOM     26  H   UNL     1      -1.857   0.729   1.206  1.00  0.00     0.158 HD
ENDBRANCH  20  24
BRANCH  23  27
ATOM     27  N   UNL     1      -7.056   3.101   2.007  1.00  0.00    -0.368 N 
ATOM     28  H   UNL     1      -6.770   3.628   2.861  1.00  0.00     0.159 HD
ATOM     29  H   UNL     1      -8.035   3.194   1.654  1.00  0.00     0.159 HD
ENDBRANCH  23  27
ENDBRANCH  13  14
ENDBRANCH  11  13
ENDBRANCH   6  11
ENDBRANCH   1   5
BRANCH   3  30
ATOM     30  C   UNL     1       5.027   0.179   1.114  1.00  0.00     0.192 C 
BRANCH  30  31
ATOM     31  C   UNL     1       5.313   1.674   0.879  1.00  0.00     0.049 C 
BRANCH  31  32
ATOM     32  C   UNL     1       5.236   2.039  -0.609  1.00  0.00     0.125 C 
BRANCH  32  33
ATOM     33  C   UNL     1       5.514   3.495  -0.805  1.00  0.00     0.303 C 
ATOM     34  O   UNL     1       6.702   3.905  -0.903  1.00  0.00    -0.252 OA
BRANCH  33  35
ATOM     35  O   UNL     1       4.461   4.405  -0.823  1.00  0.00    -0.481 OA
ATOM     36  H   UNL     1       4.635   5.397  -0.925  1.00  0.00     0.296 HD
ENDBRANCH  33  35
ENDBRANCH  32  33
ENDBRANCH  31  32
ENDBRANCH  30  31
BRANCH  30  37
ATOM     37  C   UNL     1       5.259  -0.183   2.552  1.00  0.00     0.326 C 
ATOM     38  O   UNL     1       4.602   0.387   3.465  1.00  0.00    -0.250 OA
BRANCH  37  39
ATOM     39  O   UNL     1       6.188  -1.165   2.878  1.00  0.00    -0.480 OA
ATOM     40  H   UNL     1       6.359  -1.419   3.844  1.00  0.00     0.296 HD
ENDBRANCH  37  39
ENDBRANCH  30  37
ENDBRANCH   3  30
TORSDOF 13
