REMARK SMILES NC(N)=NCC1COC2(CCCCC2)O1
REMARK SMILES IDX 5 1 4 2 1 3 2 4 3 7 6 10 7 11 15 12 8 13 9 14 10 15 14 16
REMARK SMILES IDX 11 17 13 18 12 19
REMARK H PARENT 1 5 1 6 3 8 3 9
REMARK Flexibility Score: inf
ROOT
ATOM      1  C   UNL     1       1.908  -0.625   1.271  1.00  0.00     0.180 C 
ENDROOT
BRANCH   1   2
ATOM      2  N   UNL     1       3.219  -1.019   0.753  1.00  0.00    -0.251 NA
ATOM      3  N   UNL     1       5.416  -0.790  -0.054  1.00  0.00    -0.370 N 
ATOM      4  C   UNL     1       4.212  -0.226   0.465  1.00  0.00     0.186 C 
ATOM      5  H   UNL     1       5.497  -1.820  -0.206  1.00  0.00     0.159 HD
ATOM      6  H   UNL     1       6.230  -0.180  -0.290  1.00  0.00     0.159 HD
ATOM      7  N   UNL     1       4.134   1.192   0.665  1.00  0.00    -0.370 N 
ATOM      8  H   UNL     1       4.944   1.797   0.404  1.00  0.00     0.159 HD
ATOM      9  H   UNL     1       3.302   1.659   1.086  1.00  0.00     0.159 HD
ENDBRANCH   1   2
BRANCH   1  10
ATOM     10  C   UNL     1       1.028  -0.031   0.161  1.00  0.00     0.169 C 
ATOM     11  C   UNL     1       0.746  -1.008  -0.948  1.00  0.00     0.198 C 
ATOM     12  O   UNL     1      -0.215   0.322   0.679  1.00  0.00    -0.342 OA
ATOM     13  O   UNL     1      -0.553  -0.739  -1.367  1.00  0.00    -0.347 OA
ATOM     14  C   UNL     1      -1.169  -0.050  -0.297  1.00  0.00     0.168 C 
ATOM     15  C   UNL     1      -2.207  -0.999   0.362  1.00  0.00     0.066 C 
ATOM     16  C   UNL     1      -1.825   1.242  -0.852  1.00  0.00     0.066 C 
ATOM     17  C   UNL     1      -3.386  -0.229   0.965  1.00  0.00     0.006 C 
ATOM     18  C   UNL     1      -3.273   1.005  -1.294  1.00  0.00     0.006 C 
ATOM     19  C   UNL     1      -4.158   0.557  -0.114  1.00  0.00     0.000 C 
ENDBRANCH   1  10
TORSDOF 2
