REMARK SMILES CC1O[C@@]2(CS1)CN1CCC2CC1
REMARK SMILES IDX 1 1 2 2 3 3 4 4 5 5 6 6 7 7 8 8 9 9 10 10 11 11 12 12 13 13
REMARK H PARENT
REMARK Flexibility Score: inf
ROOT
ATOM      1  C   UNL     1       3.764   0.336  -0.360  1.00  0.00     0.051 C 
ATOM      2  C   UNL     1       2.375  -0.251  -0.570  1.00  0.00     0.173 C 
ATOM      3  O   UNL     1       1.415   0.599   0.023  1.00  0.00    -0.359 OA
ATOM      4  C   UNL     1       0.344  -0.176   0.519  1.00  0.00     0.094 C 
ATOM      5  C   UNL     1       0.963  -1.406   1.189  1.00  0.00     0.109 C 
ATOM      6  S   UNL     1       2.309  -1.933   0.130  1.00  0.00    -0.128 SA
ATOM      7  C   UNL     1      -0.450   0.688   1.557  1.00  0.00     0.121 C 
ATOM      8  N   UNL     1      -1.810   1.020   1.066  1.00  0.00    -0.300 NA
ATOM      9  C   UNL     1      -1.717   1.704  -0.248  1.00  0.00     0.085 C 
ATOM     10  C   UNL     1      -1.078   0.783  -1.320  1.00  0.00     0.022 C 
ATOM     11  C   UNL     1      -0.640  -0.535  -0.649  1.00  0.00     0.026 C 
ATOM     12  C   UNL     1      -1.925  -1.191  -0.093  1.00  0.00     0.022 C 
ATOM     13  C   UNL     1      -2.592  -0.231   0.920  1.00  0.00     0.085 C 
ENDROOT
TORSDOF 0
