REMARK SMILES Nc1cc(Cl)c(NC2=NCCN2)c(Cl)c1
REMARK SMILES IDX 2 1 3 2 4 3 5 4 6 5 13 6 14 7 15 8 1 9 7 12 8 13 9 15 12 16
REMARK SMILES IDX 10 17 11 18
REMARK H PARENT 1 10 1 11 7 14 12 19
REMARK Flexibility Score: inf
ROOT
ATOM      1  C   UNL     1       3.289  -0.030  -0.472  1.00  0.00     0.034 A 
ATOM      2  C   UNL     1       2.366  -0.891  -1.079  1.00  0.00     0.048 A 
ATOM      3  C   UNL     1       1.087  -1.056  -0.537  1.00  0.00     0.068 A 
ATOM      4  Cl  UNL     1      -0.004  -2.211  -1.294  1.00  0.00    -0.082 Cl
ATOM      5  C   UNL     1       0.716  -0.346   0.623  1.00  0.00     0.079 A 
ATOM      6  C   UNL     1       1.653   0.502   1.243  1.00  0.00     0.068 A 
ATOM      7  Cl  UNL     1       1.236   1.403   2.695  1.00  0.00    -0.082 Cl
ATOM      8  C   UNL     1       2.929   0.661   0.692  1.00  0.00     0.048 A 
ENDROOT
BRANCH   1   9
ATOM      9  N   UNL     1       4.595   0.135  -1.031  1.00  0.00    -0.399 N 
ATOM     10  H   UNL     1       4.875  -0.378  -1.897  1.00  0.00     0.156 HD
ATOM     11  H   UNL     1       5.292   0.772  -0.584  1.00  0.00     0.156 HD
ENDBRANCH   1   9
BRANCH   5  12
ATOM     12  N   UNL     1      -0.590  -0.505   1.196  1.00  0.00    -0.324 N 
ATOM     13  C   UNL     1      -1.784  -0.117   0.506  1.00  0.00     0.196 C 
ATOM     14  H   UNL     1      -0.666  -0.761   2.205  1.00  0.00     0.170 HD
ATOM     15  N   UNL     1      -1.776   0.442  -0.654  1.00  0.00    -0.251 NA
ATOM     16  N   UNL     1      -3.072  -0.283   1.059  1.00  0.00    -0.354 N 
ATOM     17  C   UNL     1      -3.146   0.728  -1.064  1.00  0.00     0.167 C 
ATOM     18  C   UNL     1      -4.025   0.242   0.102  1.00  0.00     0.139 C 
ATOM     19  H   UNL     1      -3.297  -0.703   1.988  1.00  0.00     0.163 HD
ENDBRANCH   5  12
TORSDOF 2
