REMARK SMILES NC(=O)N1c2ccccc2C=Cc2ccccc21
REMARK SMILES IDX 1 1 2 2 3 3 4 4 5 7 6 8 10 9 7 10 9 11 8 12 11 13 18 15
REMARK SMILES IDX 13 16 17 17 14 18 16 19 15 20 12 21
REMARK H PARENT 1 5 1 6
REMARK Flexibility Score: 30.00
ROOT
ATOM      1  N   UNL     1      -0.619   2.998   1.254  1.00  0.00    -0.351 N 
ATOM      2  C   UNL     1       0.463   2.239   0.707  1.00  0.00     0.323 C 
ATOM      3  O   UNL     1       1.625   2.728   0.737  1.00  0.00    -0.248 OA
ATOM      4  N   UNL     1       0.248   0.917   0.166  1.00  0.00    -0.262 N 
ATOM      5  H   UNL     1      -0.448   3.963   1.615  1.00  0.00     0.161 HD
ATOM      6  H   UNL     1      -1.575   2.595   1.357  1.00  0.00     0.161 HD
ENDROOT
BRANCH   4   7
ATOM      7  C   UNL     1       1.354   0.082  -0.197  1.00  0.00     0.058 A 
ATOM      8  C   UNL     1       2.269   0.522  -1.168  1.00  0.00     0.027 A 
ATOM      9  C   UNL     1       1.526  -1.183   0.404  1.00  0.00    -0.001 A 
ATOM     10  C   UNL     1       3.362  -0.272  -1.521  1.00  0.00     0.002 A 
ATOM     11  C   UNL     1       2.644  -1.960   0.055  1.00  0.00     0.010 A 
ATOM     12  C   UNL     1       3.552  -1.509  -0.907  1.00  0.00     0.001 A 
BRANCH   9  13
ATOM     13  C   UNL     1       0.621  -1.694   1.459  1.00  0.00     0.011 CG0
ATOM     14  G   UNL     1      -0.707  -1.511   1.517  1.00  0.00     0.000 G0
ENDBRANCH   9  13
ENDBRANCH   4   7
BRANCH   4  15
ATOM     15  C   UNL     1      -1.070   0.419  -0.088  1.00  0.00     0.058 A 
ATOM     16  C   UNL     1      -1.527  -0.759   0.539  1.00  0.00    -0.001 A 
ATOM     17  C   UNL     1      -1.912   1.108  -0.977  1.00  0.00     0.027 A 
ATOM     18  C   UNL     1      -2.841  -1.196   0.297  1.00  0.00     0.010 A 
ATOM     19  C   UNL     1      -3.206   0.648  -1.224  1.00  0.00     0.002 A 
ATOM     20  C   UNL     1      -3.672  -0.500  -0.584  1.00  0.00     0.001 A 
BRANCH  16  21
ATOM     21  C   UNL     1      -0.707  -1.511   1.517  1.00  0.00     0.011 CG0
ATOM     22  G   UNL     1       0.621  -1.694   1.459  1.00  0.00     0.000 G0
ENDBRANCH  16  21
ENDBRANCH   4  15
TORSDOF 0
