REMARK SMILES CN(C)C(=O)Oc1ccc[n+](C)c1
REMARK SMILES IDX 6 1 4 2 1 3 2 4 3 5 5 6 7 7 13 8 8 9 11 10 9 11 12 12 10 13
REMARK H PARENT
REMARK Flexibility Score: inf
ROOT
ATOM      1  O   UNL     1      -0.819   0.138   0.695  1.00  0.00    -0.404 OA
ENDROOT
BRANCH   1   2
ATOM      2  C   UNL     1      -1.544  -0.433  -0.361  1.00  0.00     0.414 C 
ATOM      3  C   UNL     1      -3.681  -0.651  -1.666  1.00  0.00     0.150 C 
ATOM      4  N   UNL     1      -2.910  -0.040  -0.579  1.00  0.00    -0.314 N 
ATOM      5  C   UNL     1      -3.511   0.976   0.288  1.00  0.00     0.150 C 
ATOM      6  O   UNL     1      -1.022  -1.324  -1.087  1.00  0.00    -0.224 OA
ENDBRANCH   1   2
BRANCH   1   7
ATOM      7  C   UNL     1       0.573   0.073   0.852  1.00  0.00     0.196 A 
ATOM      8  C   UNL     1       1.456  -0.005  -0.240  1.00  0.00     0.355 A 
ATOM      9  C   UNL     1       1.106   0.132   2.141  1.00  0.00     0.060 A 
ATOM     10  N   UNL     1       2.808  -0.067  -0.040  1.00  0.00    -0.205 N 
ATOM     11  C   UNL     1       2.485   0.088   2.331  1.00  0.00     0.075 A 
ATOM     12  C   UNL     1       3.710  -0.112  -1.193  1.00  0.00     0.439 C 
ATOM     13  C   UNL     1       3.327  -0.009   1.223  1.00  0.00     0.308 A 
ENDBRANCH   1   7
TORSDOF 2
