REMARK SMILES C=CCC1(CC(C)C)C(=O)NC(=O)NC1=O
REMARK SMILES IDX 4 1 9 2 10 3 11 4 12 5 13 6 14 7 15 8 16 9 5 12 6 13 7 14
REMARK SMILES IDX 8 15 3 16 2 17 1 18
REMARK H PARENT 11 10 14 11
REMARK Flexibility Score: inf
ROOT
ATOM      1  C   UNL     1      -0.668  -0.496   0.549  1.00  0.00     0.132 C 
ATOM      2  C   UNL     1      -1.013  -1.888   1.090  1.00  0.00     0.244 C 
ATOM      3  O   UNL     1      -0.963  -2.112   2.331  1.00  0.00    -0.273 OA
ATOM      4  N   UNL     1      -1.267  -2.988   0.211  1.00  0.00    -0.277 N 
ATOM      5  C   UNL     1      -1.447  -2.783  -1.185  1.00  0.00     0.328 C 
ATOM      6  O   UNL     1      -1.607  -3.768  -1.954  1.00  0.00    -0.248 OA
ATOM      7  N   UNL     1      -1.480  -1.459  -1.704  1.00  0.00    -0.277 N 
ATOM      8  C   UNL     1      -1.271  -0.332  -0.848  1.00  0.00     0.244 C 
ATOM      9  O   UNL     1      -1.532   0.816  -1.300  1.00  0.00    -0.273 OA
ATOM     10  H   UNL     1      -1.344  -3.954   0.603  1.00  0.00     0.174 HD
ATOM     11  H   UNL     1      -1.719  -1.307  -2.710  1.00  0.00     0.174 HD
ENDROOT
BRANCH   1  12
ATOM     12  C   UNL     1       0.897  -0.415   0.514  1.00  0.00     0.030 C 
BRANCH  12  13
ATOM     13  C   UNL     1       1.536   0.645  -0.435  1.00  0.00    -0.016 C 
ATOM     14  C   UNL     1       1.894   0.037  -1.802  1.00  0.00     0.007 C 
ATOM     15  C   UNL     1       2.799   1.246   0.197  1.00  0.00     0.007 C 
ENDBRANCH  12  13
ENDBRANCH   1  12
BRANCH   1  16
ATOM     16  C   UNL     1      -1.287   0.551   1.540  1.00  0.00     0.053 C 
BRANCH  16  17
ATOM     17  C   UNL     1      -0.906   1.989   1.289  1.00  0.00    -0.033 C 
ATOM     18  C   UNL     1      -1.788   2.893   0.852  1.00  0.00     0.004 C 
ENDBRANCH  16  17
ENDBRANCH   1  16
TORSDOF 4
