REMARK SMILES C[C@H]1C[C@H]2[C@@H]3C[C@H](F)C4=CC(=O)C=C[C@]4(C)[C@@]3(F)[C@@H](O)C[C@]2(C)[C@@]1(O)C(=O)CCl
REMARK SMILES IDX 4 1 3 2 2 3 1 4 24 5 22 6 23 7 21 8 19 9 17 10 18 11 5 12
REMARK SMILES IDX 6 13 7 14 8 15 9 16 10 17 11 18 12 19 13 20 14 21 15 22
REMARK SMILES IDX 16 23 25 24 26 26 27 27 28 28 29 29 20 30
REMARK H PARENT 25 25 20 31
REMARK Flexibility Score: inf
ROOT
ATOM      1  C   UNL     1       0.724   0.629   0.462  1.00  0.00     0.005 C 
ATOM      2  C   UNL     1       1.663   1.824   0.432  1.00  0.00     0.011 C 
ATOM      3  C   UNL     1       3.067   1.203   0.631  1.00  0.00     0.026 C 
ATOM      4  C   UNL     1       4.119   1.938  -0.226  1.00  0.00     0.011 C 
ATOM      5  C   UNL     1       2.910  -0.354   0.410  1.00  0.00     0.132 C 
ATOM      6  C   UNL     1       1.494  -0.468  -0.294  1.00  0.00     0.010 C 
ATOM      7  C   UNL     1       1.592  -0.174  -1.834  1.00  0.00     0.015 C 
ATOM      8  C   UNL     1       0.734  -1.807  -0.070  1.00  0.00     0.045 C 
ATOM      9  C   UNL     1      -0.759  -1.730  -0.501  1.00  0.00     0.154 C 
ATOM     10  C   UNL     1      -1.521  -0.538   0.186  1.00  0.00     0.152 C 
ATOM     11  F   UNL     1      -1.513  -0.828   1.548  1.00  0.00    -0.239 F 
ATOM     12  C   UNL     1      -0.745   0.819  -0.000  1.00  0.00     0.037 C 
ATOM     13  C   UNL     1      -1.420   1.949   0.808  1.00  0.00     0.049 C 
ATOM     14  C   UNL     1      -2.884   2.129   0.410  1.00  0.00     0.194 C 
ATOM     15  F   UNL     1      -3.438   3.126   1.199  1.00  0.00    -0.243 F 
ATOM     16  C   UNL     1      -3.620   0.812   0.544  1.00  0.00    -0.020 C 
ATOM     17  C   UNL     1      -4.748   0.736   1.274  1.00  0.00     0.055 C 
ATOM     18  C   UNL     1      -5.444  -0.537   1.456  1.00  0.00     0.178 C 
ATOM     19  O   UNL     1      -6.508  -0.586   2.127  1.00  0.00    -0.290 OA
ATOM     20  C   UNL     1      -4.890  -1.752   0.868  1.00  0.00     0.048 C 
ATOM     21  C   UNL     1      -3.782  -1.703   0.130  1.00  0.00    -0.009 C 
ATOM     22  C   UNL     1      -3.050  -0.403  -0.214  1.00  0.00     0.047 C 
ATOM     23  C   UNL     1      -3.289  -0.159  -1.726  1.00  0.00     0.024 C 
ENDROOT
BRANCH   5  24
ATOM     24  O   UNL     1       2.822  -0.942   1.694  1.00  0.00    -0.381 OA
ATOM     25  H   UNL     1       2.920  -1.926   1.604  1.00  0.00     0.212 HD
ENDBRANCH   5  24
BRANCH   5  26
ATOM     26  C   UNL     1       4.104  -1.006  -0.327  1.00  0.00     0.179 C 
ATOM     27  O   UNL     1       3.918  -1.623  -1.364  1.00  0.00    -0.295 OA
BRANCH  26  28
ATOM     28  C   UNL     1       5.518  -1.026   0.219  1.00  0.00     0.188 C 
ATOM     29  Cl  UNL     1       5.705  -0.439   1.898  1.00  0.00    -0.118 Cl
ENDBRANCH  26  28
ENDBRANCH   5  26
BRANCH   9  30
ATOM     30  O   UNL     1      -0.857  -1.666  -1.899  1.00  0.00    -0.390 OA
ATOM     31  H   UNL     1      -0.631  -2.567  -2.249  1.00  0.00     0.211 HD
ENDBRANCH   9  30
TORSDOF 4
