REMARK SMILES COC(=O)[C@H](c1ccccc1Cl)N1CCc2sccc2C1
REMARK SMILES IDX 5 1 13 2 14 3 21 4 15 5 20 6 16 7 19 8 17 9 18 10 3 11 4 12
REMARK SMILES IDX 2 13 1 14 6 15 7 16 11 17 8 18 10 19 12 20 9 21
REMARK H PARENT
REMARK Flexibility Score: inf
ROOT
ATOM      1  C   UNL     1      -0.737  -0.089  -0.546  1.00  0.00     0.200 C 
ENDROOT
BRANCH   1   2
ATOM      2  N   UNL     1       0.512  -0.844  -0.876  1.00  0.00    -0.282 NA
ATOM      3  C   UNL     1       1.161  -0.418  -2.140  1.00  0.00     0.091 C 
ATOM      4  C   UNL     1       1.497  -1.028   0.222  1.00  0.00     0.122 C 
ATOM      5  C   UNL     1       1.860   0.949  -2.007  1.00  0.00     0.062 C 
ATOM      6  C   UNL     1       2.417   0.154   0.340  1.00  0.00    -0.020 A 
ATOM      7  C   UNL     1       2.621   1.016  -0.722  1.00  0.00     0.010 A 
ATOM      8  C   UNL     1       3.177   0.472   1.472  1.00  0.00     0.017 A 
ATOM      9  S   UNL     1       3.698   2.215  -0.251  1.00  0.00    -0.149 S 
ATOM     10  C   UNL     1       3.953   1.614   1.304  1.00  0.00     0.065 A 
ENDBRANCH   1   2
BRANCH   1  11
ATOM     11  C   UNL     1      -0.575   0.906   0.583  1.00  0.00     0.327 C 
ATOM     12  O   UNL     1      -0.774   0.555   1.780  1.00  0.00    -0.250 OA
BRANCH  11  13
ATOM     13  O   UNL     1      -0.172   2.212   0.290  1.00  0.00    -0.468 OA
ATOM     14  C   UNL     1       0.091   3.178   1.299  1.00  0.00     0.282 C 
ENDBRANCH  11  13
ENDBRANCH   1  11
BRANCH   1  15
ATOM     15  C   UNL     1      -1.903  -1.033  -0.269  1.00  0.00    -0.001 A 
ATOM     16  C   UNL     1      -1.680  -2.355   0.174  1.00  0.00     0.007 A 
ATOM     17  C   UNL     1      -3.241  -0.583  -0.397  1.00  0.00     0.046 A 
ATOM     18  C   UNL     1      -2.752  -3.206   0.453  1.00  0.00     0.000 A 
ATOM     19  C   UNL     1      -4.305  -1.447  -0.114  1.00  0.00     0.021 A 
ATOM     20  Cl  UNL     1      -3.632   1.062  -0.894  1.00  0.00    -0.084 Cl
ATOM     21  C   UNL     1      -4.062  -2.754   0.307  1.00  0.00     0.002 A 
ENDBRANCH   1  15
TORSDOF 4
