REMARK SMILES CCN(CC)CCOC(=O)c1ccc(N)cc1
REMARK SMILES IDX 7 1 6 2 3 3 2 4 1 5 4 6 5 7 8 8 9 9 10 10 11 11 12 12 17 13
REMARK SMILES IDX 13 14 16 15 14 16 15 17
REMARK H PARENT 15 18 15 19
REMARK Flexibility Score: inf
ROOT
ATOM      1  C   UNL     1      -0.611  -0.684  -0.929  1.00  0.00     0.248 C 
ENDROOT
BRANCH   1   2
ATOM      2  C   UNL     1      -1.672  -0.759   0.163  1.00  0.00     0.126 C 
BRANCH   2   3
ATOM      3  N   UNL     1      -2.878  -1.438  -0.367  1.00  0.00    -0.301 NA
BRANCH   3   4
ATOM      4  C   UNL     1      -3.156  -2.729   0.303  1.00  0.00     0.081 C 
ATOM      5  C   UNL     1      -3.683  -2.579   1.738  1.00  0.00     0.021 C 
ENDBRANCH   3   4
BRANCH   3   6
ATOM      6  C   UNL     1      -4.068  -0.562  -0.434  1.00  0.00     0.081 C 
ATOM      7  C   UNL     1      -3.952   0.426  -1.591  1.00  0.00     0.021 C 
ENDBRANCH   3   6
ENDBRANCH   2   3
ENDBRANCH   1   2
BRANCH   1   8
ATOM      8  O   UNL     1       0.545  -0.024  -0.425  1.00  0.00    -0.461 OA
BRANCH   8   9
ATOM      9  C   UNL     1       1.690   0.195  -1.199  1.00  0.00     0.338 C 
ATOM     10  O   UNL     1       1.726  -0.200  -2.397  1.00  0.00    -0.246 OA
BRANCH   9  11
ATOM     11  C   UNL     1       2.856   0.889  -0.609  1.00  0.00     0.060 A 
ATOM     12  C   UNL     1       4.016   1.118  -1.371  1.00  0.00     0.018 A 
ATOM     13  C   UNL     1       2.818   1.330   0.725  1.00  0.00     0.018 A 
ATOM     14  C   UNL     1       5.115   1.775  -0.807  1.00  0.00     0.026 A 
ATOM     15  C   UNL     1       3.918   1.987   1.286  1.00  0.00     0.026 A 
ATOM     16  C   UNL     1       5.071   2.212   0.523  1.00  0.00     0.031 A 
BRANCH  16  17
ATOM     17  N   UNL     1       6.195   2.884   1.097  1.00  0.00    -0.399 N 
ATOM     18  H   UNL     1       6.172   3.213   2.088  1.00  0.00     0.156 HD
ATOM     19  H   UNL     1       7.059   3.056   0.536  1.00  0.00     0.156 HD
ENDBRANCH  16  17
ENDBRANCH   9  11
ENDBRANCH   8   9
ENDBRANCH   1   8
TORSDOF 8
