REMARK SMILES N=C(N)NC(=O)c1nc(Cl)c(N)nc1N
REMARK SMILES IDX 7 1 8 2 9 3 10 4 11 5 13 6 14 7 5 8 3 9 2 10 1 13 4 14 6 17
REMARK SMILES IDX 15 18 12 21
REMARK H PARENT 3 11 3 12 1 15 4 16 15 19 15 20 12 22 12 23
REMARK Flexibility Score: inf
ROOT
ATOM      1  C   UNL     1      -0.441  -0.342  -0.022  1.00  0.00     0.172 A 
ATOM      2  N   UNL     1       0.234  -0.867   1.037  1.00  0.00    -0.223 NA
ATOM      3  C   UNL     1      -0.388  -1.560   2.024  1.00  0.00     0.172 A 
ATOM      4  Cl  UNL     1       0.578  -2.197   3.345  1.00  0.00    -0.058 Cl
ATOM      5  C   UNL     1      -1.776  -1.756   1.951  1.00  0.00     0.163 A 
ATOM      6  N   UNL     1      -2.459  -1.220   0.906  1.00  0.00    -0.209 NA
ATOM      7  C   UNL     1      -1.844  -0.512  -0.078  1.00  0.00     0.157 A 
ENDROOT
BRANCH   1   8
ATOM      8  C   UNL     1       0.340   0.337  -1.080  1.00  0.00     0.280 C 
ATOM      9  N   UNL     1       3.593   2.355  -1.213  1.00  0.00    -0.370 N 
ATOM     10  C   UNL     1       2.428   1.670  -1.684  1.00  0.00     0.192 C 
ATOM     11  H   UNL     1       3.806   2.396  -0.192  1.00  0.00     0.159 HD
ATOM     12  H   UNL     1       4.246   2.823  -1.880  1.00  0.00     0.159 HD
ATOM     13  N   UNL     1       2.177   1.625  -2.954  1.00  0.00    -0.269 NA
ATOM     14  N   UNL     1       1.552   1.035  -0.737  1.00  0.00    -0.291 N 
ATOM     15  H   UNL     1       2.803   2.080  -3.656  1.00  0.00     0.191 HD
ATOM     16  H   UNL     1       1.810   1.101   0.273  1.00  0.00     0.173 HD
ATOM     17  O   UNL     1      -0.031   0.258  -2.282  1.00  0.00    -0.267 OA
ENDBRANCH   1   8
BRANCH   7  18
ATOM     18  N   UNL     1      -2.650   0.085  -1.100  1.00  0.00    -0.382 N 
ATOM     19  H   UNL     1      -2.297   0.851  -1.712  1.00  0.00     0.158 HD
ATOM     20  H   UNL     1      -3.667  -0.145  -1.153  1.00  0.00     0.158 HD
ENDBRANCH   7  18
BRANCH   5  21
ATOM     21  N   UNL     1      -2.487  -2.489   2.951  1.00  0.00    -0.381 N 
ATOM     22  H   UNL     1      -2.006  -2.916   3.772  1.00  0.00     0.158 HD
ATOM     23  H   UNL     1      -3.521  -2.611   2.869  1.00  0.00     0.158 HD
ENDBRANCH   5  21
TORSDOF 3
