REMARK SMILES CC(=O)[C@@]1(O)CC[C@H]2[C@@H]3C[C@H](C)C4=CC(=O)C=C[C@]4(C)[C@@]3(F)[C@@H](O)C[C@@]21C
REMARK SMILES IDX 8 1 7 2 6 3 4 4 26 5 27 6 25 7 23 8 21 9 22 10 9 11 10 12
REMARK SMILES IDX 11 13 12 14 13 15 14 16 15 17 16 18 17 19 18 20 19 21 20 22
REMARK SMILES IDX 5 23 2 25 1 26 3 27 24 28
REMARK H PARENT 5 24 24 29
REMARK Flexibility Score: inf
ROOT
ATOM      1  C   UNL     1      -1.145   0.520  -0.653  1.00  0.00     0.005 C 
ATOM      2  C   UNL     1      -2.092   1.701  -0.787  1.00  0.00     0.008 C 
ATOM      3  C   UNL     1      -3.484   1.038  -0.895  1.00  0.00     0.044 C 
ATOM      4  C   UNL     1      -3.286  -0.498  -0.671  1.00  0.00     0.128 C 
ATOM      5  C   UNL     1      -1.940  -0.540   0.130  1.00  0.00     0.009 C 
ATOM      6  C   UNL     1      -2.214  -0.120   1.623  1.00  0.00     0.015 C 
ATOM      7  C   UNL     1      -1.141  -1.889   0.162  1.00  0.00     0.045 C 
ATOM      8  C   UNL     1       0.228  -1.907  -0.584  1.00  0.00     0.154 C 
ATOM      9  C   UNL     1       1.112  -0.569  -0.551  1.00  0.00     0.152 C 
ATOM     10  F   UNL     1       1.453  -0.339  -1.883  1.00  0.00    -0.239 F 
ATOM     11  C   UNL     1       0.272   0.663  -0.081  1.00  0.00     0.035 C 
ATOM     12  C   UNL     1       0.979   1.964  -0.461  1.00  0.00     0.015 C 
ATOM     13  C   UNL     1       2.309   2.084   0.309  1.00  0.00     0.013 C 
ATOM     14  C   UNL     1       3.023   3.367  -0.161  1.00  0.00     0.012 C 
ATOM     15  C   UNL     1       3.162   0.807   0.191  1.00  0.00    -0.050 C 
ATOM     16  C   UNL     1       4.506   0.886   0.336  1.00  0.00     0.052 C 
ATOM     17  C   UNL     1       5.352  -0.298   0.170  1.00  0.00     0.178 C 
ATOM     18  O   UNL     1       6.591  -0.236   0.390  1.00  0.00    -0.290 OA
ATOM     19  C   UNL     1       4.755  -1.525  -0.345  1.00  0.00     0.048 C 
ATOM     20  C   UNL     1       3.429  -1.627  -0.430  1.00  0.00    -0.009 C 
ATOM     21  C   UNL     1       2.491  -0.599   0.222  1.00  0.00     0.044 C 
ATOM     22  C   UNL     1       2.311  -0.992   1.712  1.00  0.00     0.024 C 
ENDROOT
BRANCH   4  23
ATOM     23  O   UNL     1      -3.128  -1.087  -1.947  1.00  0.00    -0.382 OA
ATOM     24  H   UNL     1      -3.143  -2.073  -1.854  1.00  0.00     0.212 HD
ENDBRANCH   4  23
BRANCH   4  25
ATOM     25  C   UNL     1      -4.461  -1.175   0.044  1.00  0.00     0.161 C 
ATOM     26  C   UNL     1      -5.786  -0.498   0.264  1.00  0.00     0.091 C 
ATOM     27  O   UNL     1      -4.320  -2.316   0.461  1.00  0.00    -0.297 OA
ENDBRANCH   4  25
BRANCH   8  28
ATOM     28  O   UNL     1       0.944  -3.036  -0.154  1.00  0.00    -0.390 OA
ATOM     29  H   UNL     1       0.576  -3.825  -0.634  1.00  0.00     0.211 HD
ENDBRANCH   8  28
TORSDOF 3
