REMARK SMILES CN1CCC[C@@H]1Cc1c[nH]c2ccc(CCS(=O)(=O)c3ccccc3)cc12
REMARK SMILES IDX 15 1 14 2 8 3 9 4 27 5 10 6 11 7 26 8 12 10 13 11 7 12 6 13
REMARK SMILES IDX 1 14 2 15 3 16 4 17 5 18 16 19 17 20 18 21 19 22 20 23 21 24
REMARK SMILES IDX 25 25 22 26 24 27 23 28
REMARK H PARENT 10 9
REMARK Flexibility Score: inf
ROOT
ATOM      1  C   UNL     1       1.336   0.365   1.835  1.00  0.00     0.052 C 
ENDROOT
BRANCH   1   2
ATOM      2  C   UNL     1       0.839  -0.132   0.502  1.00  0.00    -0.046 A 
ATOM      3  C   UNL     1      -1.788   0.326  -2.133  1.00  0.00    -0.021 A 
ATOM      4  C   UNL     1      -1.698  -0.493  -3.255  1.00  0.00     0.087 A 
ATOM      5  C   UNL     1      -0.724  -0.031  -1.326  1.00  0.00     0.003 A 
ATOM      6  N   UNL     1      -0.634  -1.321  -3.152  1.00  0.00    -0.361 N 
ATOM      7  C   UNL     1      -0.051  -1.032  -1.976  1.00  0.00     0.046 A 
ATOM      8  C   UNL     1      -0.306   0.450  -0.086  1.00  0.00     0.014 A 
ATOM      9  H   UNL     1      -0.333  -2.041  -3.845  1.00  0.00     0.166 HD
ATOM     10  C   UNL     1       1.079  -1.632  -1.426  1.00  0.00     0.027 A 
ATOM     11  C   UNL     1       1.522  -1.177  -0.172  1.00  0.00     0.006 A 
BRANCH   3  12
ATOM     12  C   UNL     1      -2.858   1.347  -1.849  1.00  0.00     0.057 C 
BRANCH  12  13
ATOM     13  C   UNL     1      -3.999   0.808  -0.962  1.00  0.00     0.060 C 
ATOM     14  C   UNL     1      -3.685   1.064   1.445  1.00  0.00     0.105 C 
ATOM     15  N   UNL     1      -3.464   0.199   0.274  1.00  0.00    -0.303 NA
ATOM     16  C   UNL     1      -4.122  -1.107   0.436  1.00  0.00     0.084 C 
ATOM     17  C   UNL     1      -5.272  -1.176  -0.551  1.00  0.00     0.017 C 
ATOM     18  C   UNL     1      -4.860  -0.244  -1.662  1.00  0.00     0.021 C 
ENDBRANCH  12  13
ENDBRANCH   3  12
ENDBRANCH   1   2
BRANCH   1  19
ATOM     19  C   UNL     1       1.908   1.788   1.756  1.00  0.00     0.147 C 
BRANCH  19  20
ATOM     20  S   UNL     1       3.339   1.907   0.685  1.00  0.00     0.178 S 
ATOM     21  O   UNL     1       2.888   1.816  -0.746  1.00  0.00    -0.224 OA
ATOM     22  O   UNL     1       4.004   3.238   0.895  1.00  0.00    -0.224 OA
BRANCH  20  23
ATOM     23  C   UNL     1       4.500   0.630   1.039  1.00  0.00     0.067 A 
ATOM     24  C   UNL     1       4.993   0.480   2.343  1.00  0.00     0.020 A 
ATOM     25  C   UNL     1       4.936  -0.243   0.030  1.00  0.00     0.020 A 
ATOM     26  C   UNL     1       5.906  -0.537   2.637  1.00  0.00     0.001 A 
ATOM     27  C   UNL     1       5.848  -1.260   0.328  1.00  0.00     0.001 A 
ATOM     28  C   UNL     1       6.332  -1.408   1.631  1.00  0.00     0.000 A 
ENDBRANCH  20  23
ENDBRANCH  19  20
ENDBRANCH   1  19
TORSDOF 6
