REMARK SMILES CCC1(c2ccc(N)cc2)CCC(=O)NC1=O
REMARK SMILES IDX 3 1 11 2 12 3 13 4 14 5 15 6 16 7 17 8 2 10 1 11 4 12 5 13
REMARK SMILES IDX 10 14 6 15 9 16 7 17 8 18
REMARK H PARENT 15 9 8 19 8 20
REMARK Flexibility Score: inf
ROOT
ATOM      1  C   UNL     1      -0.650   0.004  -0.045  1.00  0.00     0.075 C 
ATOM      2  C   UNL     1      -1.245  -1.223  -0.812  1.00  0.00     0.031 C 
ATOM      3  C   UNL     1      -2.778  -1.258  -0.825  1.00  0.00     0.102 C 
ATOM      4  C   UNL     1      -3.315  -1.182   0.569  1.00  0.00     0.226 C 
ATOM      5  O   UNL     1      -4.472  -1.613   0.817  1.00  0.00    -0.275 OA
ATOM      6  N   UNL     1      -2.542  -0.583   1.613  1.00  0.00    -0.296 N 
ATOM      7  C   UNL     1      -1.238  -0.033   1.373  1.00  0.00     0.237 C 
ATOM      8  O   UNL     1      -0.614   0.472   2.345  1.00  0.00    -0.274 OA
ATOM      9  H   UNL     1      -2.938  -0.547   2.579  1.00  0.00     0.172 HD
ENDROOT
BRANCH   1  10
ATOM     10  C   UNL     1      -1.031   1.329  -0.817  1.00  0.00     0.018 C 
ATOM     11  C   UNL     1      -2.183   2.153  -0.225  1.00  0.00     0.005 C 
ENDBRANCH   1  10
BRANCH   1  12
ATOM     12  C   UNL     1       0.901  -0.085   0.036  1.00  0.00    -0.032 A 
ATOM     13  C   UNL     1       1.625   0.954   0.670  1.00  0.00     0.007 A 
ATOM     14  C   UNL     1       1.651  -1.152  -0.521  1.00  0.00     0.007 A 
ATOM     15  C   UNL     1       3.018   0.919   0.763  1.00  0.00     0.026 A 
ATOM     16  C   UNL     1       3.046  -1.182  -0.424  1.00  0.00     0.026 A 
ATOM     17  C   UNL     1       3.735  -0.150   0.220  1.00  0.00     0.031 A 
BRANCH  17  18
ATOM     18  N   UNL     1       5.161  -0.186   0.315  1.00  0.00    -0.399 N 
ATOM     19  H   UNL     1       5.705  -0.980  -0.090  1.00  0.00     0.156 HD
ATOM     20  H   UNL     1       5.684   0.582   0.793  1.00  0.00     0.156 HD
ENDBRANCH  17  18
ENDBRANCH   1  12
TORSDOF 3
