REMARK SMILES NC12CC3CC(CC(C3)C1)C2
REMARK SMILES IDX 2 1 11 2 6 3 5 4 4 5 9 6 8 7 7 8 10 9 3 10 1 11
REMARK H PARENT 1 12 1 13
REMARK Flexibility Score: inf
ROOT
ATOM      1  C   UNL     1       1.304   0.050  -0.078  1.00  0.00     0.016 C 
ATOM      2  C   UNL     1       0.786  -1.145  -0.922  1.00  0.00     0.025 C 
ATOM      3  C   UNL     1      -0.757  -1.200  -0.868  1.00  0.00    -0.009 C 
ATOM      4  C   UNL     1      -1.214  -1.372   0.598  1.00  0.00     0.007 C 
ATOM      5  C   UNL     1      -0.714  -0.177   1.440  1.00  0.00    -0.009 C 
ATOM      6  C   UNL     1      -1.294   1.135   0.867  1.00  0.00     0.007 C 
ATOM      7  C   UNL     1      -0.836   1.307  -0.598  1.00  0.00    -0.009 C 
ATOM      8  C   UNL     1      -1.338   0.112  -1.438  1.00  0.00     0.007 C 
ATOM      9  C   UNL     1       0.707   1.362  -0.652  1.00  0.00     0.025 C 
ATOM     10  C   UNL     1       0.829  -0.123   1.392  1.00  0.00     0.025 C 
ENDROOT
BRANCH   1  11
ATOM     11  N   UNL     1       2.768   0.103  -0.148  1.00  0.00    -0.325 NA
ATOM     12  H   UNL     1       3.112   0.896   0.443  1.00  0.00     0.119 HD
ATOM     13  H   UNL     1       3.165  -0.773   0.263  1.00  0.00     0.119 HD
ENDBRANCH   1  11
TORSDOF 1
