REMARK SMILES CSCC[C@H](N)C(=O)O
REMARK SMILES IDX 4 1 3 2 2 3 1 4 5 5 6 6 7 9 8 10 9 11
REMARK H PARENT 6 7 6 8 9 12
REMARK Flexibility Score: inf
ROOT
ATOM      1  C   UNL     1      -0.133   0.215  -0.672  1.00  0.00     0.041 C 
ENDROOT
BRANCH   1   2
ATOM      2  C   UNL     1       1.130  -0.062   0.147  1.00  0.00     0.071 C 
BRANCH   2   3
ATOM      3  S   UNL     1       2.603   0.078  -0.922  1.00  0.00    -0.165 SA
ATOM      4  C   UNL     1       3.787  -0.306   0.407  1.00  0.00     0.085 C 
ENDBRANCH   2   3
ENDBRANCH   1   2
BRANCH   1   5
ATOM      5  C   UNL     1      -1.404   0.145   0.193  1.00  0.00     0.162 C 
BRANCH   5   6
ATOM      6  N   UNL     1      -1.596  -1.207   0.724  1.00  0.00    -0.318 NA
ATOM      7  H   UNL     1      -2.443  -1.209   1.339  1.00  0.00     0.119 HD
ATOM      8  H   UNL     1      -1.779  -1.871  -0.064  1.00  0.00     0.119 HD
ENDBRANCH   5   6
BRANCH   5   9
ATOM      9  C   UNL     1      -2.607   0.581  -0.602  1.00  0.00     0.320 C 
ATOM     10  O   UNL     1      -2.961  -0.061  -1.627  1.00  0.00    -0.251 OA
BRANCH   9  11
ATOM     11  O   UNL     1      -3.331   1.700  -0.202  1.00  0.00    -0.480 OA
ATOM     12  H   UNL     1      -4.142   2.008  -0.725  1.00  0.00     0.296 HD
ENDBRANCH   9  11
ENDBRANCH   5   9
ENDBRANCH   1   5
TORSDOF 6
