REMARK SMILES CC(C)(C)NCC(O)COc1cccc2c1CCC(=O)N2
REMARK SMILES IDX 7 1 6 2 5 3 2 5 1 6 3 7 4 8 8 9 9 11 10 12 11 13 12 14 16 15
REMARK SMILES IDX 13 16 15 17 17 18 14 19 21 20 18 21 19 22 20 24
REMARK H PARENT 5 4 8 10 21 23
REMARK Flexibility Score: inf
ROOT
ATOM      1  C   UNL     1      -1.014   1.177   0.030  1.00  0.00     0.165 C 
ENDROOT
BRANCH   1   2
ATOM      2  C   UNL     1      -2.449   1.420   0.552  1.00  0.00     0.116 C 
BRANCH   2   3
ATOM      3  N   UNL     1      -3.469   0.724  -0.263  1.00  0.00    -0.309 NA
ATOM      4  H   UNL     1      -3.085   0.487  -1.208  1.00  0.00     0.123 HD
BRANCH   3   5
ATOM      5  C   UNL     1      -4.096  -0.477   0.346  1.00  0.00     0.010 C 
ATOM      6  C   UNL     1      -4.941  -0.083   1.579  1.00  0.00     0.027 C 
ATOM      7  C   UNL     1      -3.043  -1.539   0.736  1.00  0.00     0.027 C 
ATOM      8  C   UNL     1      -5.049  -1.099  -0.696  1.00  0.00     0.027 C 
ENDBRANCH   3   5
ENDBRANCH   2   3
ENDBRANCH   1   2
BRANCH   1   9
ATOM      9  O   UNL     1      -0.849   1.713  -1.260  1.00  0.00    -0.388 OA
ATOM     10  H   UNL     1      -1.001   2.693  -1.201  1.00  0.00     0.211 HD
ENDBRANCH   1   9
BRANCH   1  11
ATOM     11  C   UNL     1       0.033   1.767   0.993  1.00  0.00     0.262 C 
BRANCH  11  12
ATOM     12  O   UNL     1       1.356   1.506   0.525  1.00  0.00    -0.490 OA
BRANCH  12  13
ATOM     13  C   UNL     1       2.013   0.263   0.569  1.00  0.00     0.124 A 
ATOM     14  C   UNL     1       1.465  -0.850   1.238  1.00  0.00     0.047 A 
ATOM     15  C   UNL     1       3.262   0.131  -0.076  1.00  0.00     0.018 A 
ATOM     16  C   UNL     1       2.128  -2.078   1.234  1.00  0.00     0.006 A 
ATOM     17  C   UNL     1       3.919  -1.120  -0.086  1.00  0.00     0.048 A 
ATOM     18  C   UNL     1       3.844   1.279  -0.876  1.00  0.00     0.051 C 
ATOM     19  C   UNL     1       3.346  -2.216   0.570  1.00  0.00     0.027 A 
ATOM     20  N   UNL     1       5.175  -1.267  -0.762  1.00  0.00    -0.326 N 
ATOM     21  C   UNL     1       5.378   1.253  -0.898  1.00  0.00     0.105 C 
ATOM     22  C   UNL     1       5.881  -0.118  -1.237  1.00  0.00     0.224 C 
ATOM     23  H   UNL     1       5.596  -2.215  -0.890  1.00  0.00     0.169 HD
ATOM     24  O   UNL     1       6.956  -0.257  -1.879  1.00  0.00    -0.275 OA
ENDBRANCH  12  13
ENDBRANCH  11  12
ENDBRANCH   1  11
TORSDOF 7
