REMARK SMILES Cc1ccc(Cl)c(Nc2ccccc2C(=O)O)c1Cl
REMARK SMILES IDX 9 1 10 2 11 3 12 4 13 5 14 6 8 7 7 9 1 10 2 11 18 12 3 13
REMARK SMILES IDX 19 14 4 15 5 16 6 17 15 18 16 19 17 20
REMARK H PARENT 8 8 17 21
REMARK Flexibility Score: inf
ROOT
ATOM      1  C   UNL     1      -1.635   0.911  -0.280  1.00  0.00     0.053 A 
ATOM      2  C   UNL     1      -2.453   1.902   0.285  1.00  0.00     0.027 A 
ATOM      3  C   UNL     1      -3.538   1.555   1.091  1.00  0.00     0.002 A 
ATOM      4  C   UNL     1      -3.823   0.214   1.338  1.00  0.00     0.001 A 
ATOM      5  C   UNL     1      -3.042  -0.787   0.757  1.00  0.00     0.018 A 
ATOM      6  C   UNL     1      -1.960  -0.458  -0.078  1.00  0.00     0.083 A 
ENDROOT
BRANCH   1   7
ATOM      7  N   UNL     1      -0.467   1.332  -1.008  1.00  0.00    -0.352 N 
ATOM      8  H   UNL     1      -0.556   2.177  -1.617  1.00  0.00     0.167 HD
BRANCH   7   9
ATOM      9  C   UNL     1       0.842   0.744  -0.874  1.00  0.00     0.077 A 
ATOM     10  C   UNL     1       3.253  -0.573   1.806  1.00  0.00     0.046 C 
ATOM     11  C   UNL     1       2.657  -0.199   0.475  1.00  0.00    -0.030 A 
ATOM     12  C   UNL     1       1.384   0.410   0.393  1.00  0.00     0.069 A 
ATOM     13  C   UNL     1       3.390  -0.431  -0.697  1.00  0.00     0.006 A 
ATOM     14  Cl  UNL     1       0.532   0.829   1.885  1.00  0.00    -0.082 Cl
ATOM     15  C   UNL     1       2.876  -0.063  -1.937  1.00  0.00     0.023 A 
ATOM     16  C   UNL     1       1.615   0.527  -2.032  1.00  0.00     0.066 A 
ATOM     17  Cl  UNL     1       1.003   0.947  -3.627  1.00  0.00    -0.082 Cl
ENDBRANCH   7   9
ENDBRANCH   1   7
BRANCH   6  18
ATOM     18  C   UNL     1      -1.246  -1.557  -0.761  1.00  0.00     0.337 C 
ATOM     19  O   UNL     1      -0.818  -1.408  -1.937  1.00  0.00    -0.246 OA
BRANCH  18  20
ATOM     20  O   UNL     1      -1.093  -2.786  -0.126  1.00  0.00    -0.478 OA
ATOM     21  H   UNL     1      -0.621  -3.554  -0.588  1.00  0.00     0.297 HD
ENDBRANCH  18  20
ENDBRANCH   6  18
TORSDOF 4
