REMARK SMILES CCn1cc(C(=O)O)c(=O)c2cc(F)c(N3CCNC(C)C3)c(F)c21
REMARK SMILES IDX 3 1 4 2 5 3 9 4 10 5 11 6 12 7 13 8 14 9 15 10 23 11 24 12
REMARK SMILES IDX 25 13 2 14 1 15 6 16 7 17 8 18 16 20 17 21 22 22 18 23 20 24
REMARK SMILES IDX 19 25 21 26
REMARK H PARENT 8 19 19 27
REMARK Flexibility Score: inf
ROOT
ATOM      1  N   UNL     1       2.349   0.143   1.754  1.00  0.00    -0.344 N 
ATOM      2  C   UNL     1       3.668   0.505   1.674  1.00  0.00     0.106 A 
ATOM      3  C   UNL     1       4.327   0.654   0.448  1.00  0.00     0.124 A 
ATOM      4  C   UNL     1       3.602   0.432  -0.732  1.00  0.00     0.204 A 
ATOM      5  O   UNL     1       4.171   0.541  -1.854  1.00  0.00    -0.288 OA
ATOM      6  C   UNL     1       2.238   0.094  -0.667  1.00  0.00     0.053 A 
ATOM      7  C   UNL     1       1.507  -0.111  -1.852  1.00  0.00     0.056 A 
ATOM      8  C   UNL     1       0.154  -0.420  -1.811  1.00  0.00     0.150 A 
ATOM      9  F   UNL     1      -0.529  -0.585  -2.972  1.00  0.00    -0.205 F 
ATOM     10  C   UNL     1      -0.504  -0.522  -0.586  1.00  0.00     0.112 A 
ATOM     11  C   UNL     1       0.201  -0.326   0.613  1.00  0.00     0.173 A 
ATOM     12  F   UNL     1      -0.518  -0.417   1.758  1.00  0.00    -0.202 F 
ATOM     13  C   UNL     1       1.598  -0.031   0.600  1.00  0.00     0.091 A 
ENDROOT
BRANCH   1  14
ATOM     14  C   UNL     1       1.810  -0.021   3.120  1.00  0.00     0.119 C 
ATOM     15  C   UNL     1       1.145   1.268   3.601  1.00  0.00     0.027 C 
ENDBRANCH   1  14
BRANCH   3  16
ATOM     16  C   UNL     1       5.766   1.037   0.437  1.00  0.00     0.341 C 
ATOM     17  O   UNL     1       6.387   1.192  -0.649  1.00  0.00    -0.246 OA
BRANCH  16  18
ATOM     18  O   UNL     1       6.449   1.230   1.636  1.00  0.00    -0.477 OA
ATOM     19  H   UNL     1       7.428   1.491   1.641  1.00  0.00     0.297 HD
ENDBRANCH  16  18
ENDBRANCH   3  16
BRANCH  10  20
ATOM     20  N   UNL     1      -1.910  -0.813  -0.558  1.00  0.00    -0.364 N 
ATOM     21  C   UNL     1      -2.372  -2.167  -0.878  1.00  0.00     0.132 C 
ATOM     22  C   UNL     1      -2.857   0.176  -0.036  1.00  0.00     0.135 C 
ATOM     23  C   UNL     1      -3.899  -2.238  -0.823  1.00  0.00     0.102 C 
ATOM     24  C   UNL     1      -4.148   0.209  -0.897  1.00  0.00     0.070 C 
ATOM     25  N   UNL     1      -4.463  -1.088  -1.537  1.00  0.00    -0.311 NA
ATOM     26  C   UNL     1      -4.031   1.272  -1.992  1.00  0.00     0.026 C 
ATOM     27  H   UNL     1      -5.503  -1.203  -1.567  1.00  0.00     0.123 HD
ENDBRANCH  10  20
TORSDOF 4
