REMARK SMILES O=C(O)CCC(=O)O
REMARK SMILES IDX 4 1 2 2 1 3 3 4 5 6 6 7 7 8 8 9
REMARK H PARENT 3 5 8 10
REMARK Flexibility Score: inf
ROOT
ATOM      1  C   UNL     1      -0.555  -0.650  -0.778  1.00  0.00     0.134 C 
ENDROOT
BRANCH   1   2
ATOM      2  C   UNL     1      -1.620   0.081  -0.019  1.00  0.00     0.303 C 
ATOM      3  O   UNL     1      -2.453  -0.560   0.676  1.00  0.00    -0.252 OA
BRANCH   2   4
ATOM      4  O   UNL     1      -1.664   1.472  -0.052  1.00  0.00    -0.481 OA
ATOM      5  H   UNL     1      -2.369   1.981   0.468  1.00  0.00     0.296 HD
ENDBRANCH   2   4
ENDBRANCH   1   2
BRANCH   1   6
ATOM      6  C   UNL     1       0.640  -0.994   0.118  1.00  0.00     0.134 C 
BRANCH   6   7
ATOM      7  C   UNL     1       1.378   0.236   0.548  1.00  0.00     0.303 C 
ATOM      8  O   UNL     1       1.167   0.735   1.686  1.00  0.00    -0.252 OA
BRANCH   7   9
ATOM      9  O   UNL     1       2.272   0.848  -0.325  1.00  0.00    -0.481 OA
ATOM     10  H   UNL     1       2.769   1.689  -0.054  1.00  0.00     0.296 HD
ENDBRANCH   7   9
ENDBRANCH   6   7
ENDBRANCH   1   6
TORSDOF 5
