REMARK SMILES CCC(C)(C)C(=O)O[C@H]1C[C@@H](C)C=C2C=C[C@H](C)[C@H](CC[C@@H]3C[C@@H](O)CC(=O)O3)[C@H]21
REMARK SMILES IDX 30 1 9 2 10 3 11 4 12 5 13 6 14 7 15 8 16 9 17 10 18 11
REMARK SMILES IDX 19 12 8 13 6 14 7 15 3 16 4 17 5 18 2 19 1 20 20 21 21 22
REMARK SMILES IDX 22 23 23 24 29 25 24 26 27 27 26 28 28 29 25 30
REMARK H PARENT 25 31
REMARK Flexibility Score: inf
ROOT
ATOM      1  C   UNL     1      -0.597  -1.819   0.805  1.00  0.00     0.063 C 
ATOM      2  C   UNL     1      -1.872  -1.624  -0.067  1.00  0.00     0.185 C 
ATOM      3  C   UNL     1      -1.649  -2.194  -1.464  1.00  0.00     0.053 C 
ATOM      4  C   UNL     1      -1.449  -3.719  -1.363  1.00  0.00     0.012 C 
ATOM      5  C   UNL     1      -0.973  -4.283  -2.704  1.00  0.00     0.012 C 
ATOM      6  C   UNL     1      -0.480  -4.097  -0.261  1.00  0.00    -0.020 C 
ATOM      7  C   UNL     1      -0.129  -3.263   0.736  1.00  0.00    -0.045 C 
ATOM      8  C   UNL     1       1.006  -3.632   1.596  1.00  0.00    -0.000 C 
ATOM      9  C   UNL     1       1.882  -2.702   1.992  1.00  0.00    -0.023 C 
ATOM     10  C   UNL     1       1.731  -1.225   1.669  1.00  0.00     0.012 C 
ATOM     11  C   UNL     1       1.437  -0.468   2.977  1.00  0.00     0.012 C 
ATOM     12  C   UNL     1       0.682  -0.958   0.521  1.00  0.00     0.007 C 
ENDROOT
BRANCH   2  13
ATOM     13  O   UNL     1      -2.320  -0.272  -0.145  1.00  0.00    -0.461 OA
BRANCH  13  14
ATOM     14  C   UNL     1      -2.966   0.399   0.903  1.00  0.00     0.311 C 
ATOM     15  O   UNL     1      -3.104  -0.165   2.025  1.00  0.00    -0.252 OA
BRANCH  14  16
ATOM     16  C   UNL     1      -3.509   1.803   0.698  1.00  0.00     0.062 C 
ATOM     17  C   UNL     1      -3.339   2.219  -0.781  1.00  0.00     0.023 C 
ATOM     18  C   UNL     1      -5.014   1.792   1.044  1.00  0.00     0.023 C 
BRANCH  16  19
ATOM     19  C   UNL     1      -2.723   2.769   1.633  1.00  0.00     0.015 C 
ATOM     20  C   UNL     1      -3.192   4.229   1.611  1.00  0.00     0.005 C 
ENDBRANCH  16  19
ENDBRANCH  14  16
ENDBRANCH  13  14
ENDBRANCH   2  13
BRANCH  12  21
ATOM     21  C   UNL     1       0.416   0.550   0.275  1.00  0.00     0.009 C 
BRANCH  21  22
ATOM     22  C   UNL     1       1.667   1.399  -0.042  1.00  0.00     0.046 C 
BRANCH  22  23
ATOM     23  C   UNL     1       2.239   1.169  -1.469  1.00  0.00     0.179 C 
ATOM     24  C   UNL     1       3.465   0.230  -1.498  1.00  0.00     0.077 C 
ATOM     25  O   UNL     1       2.548   2.434  -2.066  1.00  0.00    -0.462 OA
ATOM     26  C   UNL     1       4.732   0.935  -0.983  1.00  0.00     0.129 C 
ATOM     27  C   UNL     1       3.826   3.003  -2.068  1.00  0.00     0.308 C 
ATOM     28  C   UNL     1       5.047   2.162  -1.842  1.00  0.00     0.154 C 
ATOM     29  O   UNL     1       3.957   4.218  -2.369  1.00  0.00    -0.252 OA
BRANCH  26  30
ATOM     30  O   UNL     1       5.821   0.051  -1.034  1.00  0.00    -0.392 OA
ATOM     31  H   UNL     1       5.709  -0.586  -0.280  1.00  0.00     0.210 HD
ENDBRANCH  26  30
ENDBRANCH  22  23
ENDBRANCH  21  22
ENDBRANCH  12  21
TORSDOF 8
