REMARK SMILES CCCCNc1cc(C(=O)O)cc(S(N)(=O)=O)c1Oc1ccccc1
REMARK SMILES IDX 5 1 4 3 3 4 2 5 1 6 6 7 18 8 7 9 13 10 8 11 12 12 19 13
REMARK SMILES IDX 20 14 21 15 25 16 22 17 24 18 23 19 14 20 16 21 17 22 15 23
REMARK SMILES IDX 9 26 10 27 11 28
REMARK H PARENT 5 2 15 24 15 25 11 29
REMARK Flexibility Score: inf
ROOT
ATOM      1  N   UNL     1       1.388  -0.444  -1.036  1.00  0.00    -0.382 N 
ATOM      2  H   UNL     1       1.215  -1.437  -0.760  1.00  0.00     0.160 HD
ENDROOT
BRANCH   1   3
ATOM      3  C   UNL     1       2.662  -0.165  -1.701  1.00  0.00     0.113 C 
BRANCH   3   4
ATOM      4  C   UNL     1       3.589   0.688  -0.819  1.00  0.00     0.021 C 
BRANCH   4   5
ATOM      5  C   UNL     1       3.846   0.086   0.574  1.00  0.00    -0.002 C 
ATOM      6  C   UNL     1       4.618  -1.231   0.517  1.00  0.00     0.004 C 
ENDBRANCH   4   5
ENDBRANCH   3   4
ENDBRANCH   1   3
BRANCH   1   7
ATOM      7  C   UNL     1       0.409   0.557  -0.686  1.00  0.00     0.080 A 
ATOM      8  C   UNL     1      -0.560   0.269   0.295  1.00  0.00     0.170 A 
ATOM      9  C   UNL     1       0.387   1.811  -1.323  1.00  0.00     0.045 A 
ATOM     10  C   UNL     1      -1.517   1.237   0.653  1.00  0.00     0.127 A 
ATOM     11  C   UNL     1      -0.577   2.775  -0.986  1.00  0.00     0.063 A 
ATOM     12  C   UNL     1      -1.525   2.477   0.003  1.00  0.00     0.041 A 
BRANCH   8  13
ATOM     13  O   UNL     1      -0.556  -0.980   0.925  1.00  0.00    -0.454 OA
BRANCH  13  14
ATOM     14  C   UNL     1      -1.368  -2.054   0.532  1.00  0.00     0.127 A 
ATOM     15  C   UNL     1      -2.197  -1.993  -0.607  1.00  0.00     0.047 A 
ATOM     16  C   UNL     1      -1.345  -3.225   1.300  1.00  0.00     0.047 A 
ATOM     17  C   UNL     1      -2.990  -3.089  -0.957  1.00  0.00     0.004 A 
ATOM     18  C   UNL     1      -2.140  -4.319   0.946  1.00  0.00     0.004 A 
ATOM     19  C   UNL     1      -2.963  -4.252  -0.182  1.00  0.00     0.000 A 
ENDBRANCH  13  14
ENDBRANCH   8  13
BRANCH  10  20
ATOM     20  S   UNL     1      -2.719   0.904   1.905  1.00  0.00     0.241 S 
ATOM     21  O   UNL     1      -3.844   0.101   1.317  1.00  0.00    -0.207 OA
ATOM     22  O   UNL     1      -2.086   0.133   3.030  1.00  0.00    -0.207 OA
BRANCH  20  23
ATOM     23  N   UNL     1      -3.348   2.385   2.540  1.00  0.00    -0.225 NA
ATOM     24  H   UNL     1      -2.554   2.881   3.004  1.00  0.00     0.137 HD
ATOM     25  H   UNL     1      -4.026   2.132   3.293  1.00  0.00     0.137 HD
ENDBRANCH  20  23
ENDBRANCH  10  20
BRANCH  11  26
ATOM     26  C   UNL     1      -0.597   4.091  -1.665  1.00  0.00     0.335 C 
ATOM     27  O   UNL     1       0.254   4.366  -2.553  1.00  0.00    -0.246 OA
BRANCH  26  28
ATOM     28  O   UNL     1      -1.559   5.041  -1.327  1.00  0.00    -0.478 OA
ATOM     29  H   UNL     1      -1.581   5.944  -1.785  1.00  0.00     0.297 HD
ENDBRANCH  26  28
ENDBRANCH  11  26
ENDBRANCH   1   7
TORSDOF 10
