REMARK SMILES NS(=O)(=O)Cc1noc2ccccc12
REMARK SMILES IDX 2 1 3 2 4 3 1 4 5 7 6 8 7 9 14 10 8 11 9 12 13 13 10 14
REMARK SMILES IDX 12 15 11 16
REMARK H PARENT 1 5 1 6
REMARK Flexibility Score: inf
ROOT
ATOM      1  S   UNL     1       2.531  -0.068  -0.707  1.00  0.00     0.214 S 
ATOM      2  O   UNL     1       2.672  -1.396  -1.396  1.00  0.00    -0.212 OA
ATOM      3  O   UNL     1       1.765   0.873  -1.594  1.00  0.00    -0.212 OA
ENDROOT
BRANCH   1   4
ATOM      4  N   UNL     1       4.102   0.587  -0.402  1.00  0.00    -0.228 NA
ATOM      5  H   UNL     1       4.585  -0.070   0.251  1.00  0.00     0.137 HD
ATOM      6  H   UNL     1       3.964   1.482   0.117  1.00  0.00     0.137 HD
ENDBRANCH   1   4
BRANCH   1   7
ATOM      7  C   UNL     1       1.665  -0.282   0.838  1.00  0.00     0.214 C 
BRANCH   7   8
ATOM      8  C   UNL     1       0.309  -0.865   0.597  1.00  0.00     0.108 A 
ATOM      9  N   UNL     1       0.042  -2.193   0.576  1.00  0.00    -0.083 NA
ATOM     10  C   UNL     1      -0.847  -0.185   0.283  1.00  0.00     0.046 A 
ATOM     11  O   UNL     1      -1.224  -2.335   0.279  1.00  0.00    -0.356 OA
ATOM     12  C   UNL     1      -1.781  -1.162   0.097  1.00  0.00     0.167 A 
ATOM     13  C   UNL     1      -1.150   1.168   0.139  1.00  0.00     0.014 A 
ATOM     14  C   UNL     1      -3.099  -0.867  -0.241  1.00  0.00     0.051 A 
ATOM     15  C   UNL     1      -2.474   1.503  -0.204  1.00  0.00     0.001 A 
ATOM     16  C   UNL     1      -3.444   0.490  -0.391  1.00  0.00     0.004 A 
ENDBRANCH   7   8
ENDBRANCH   1   7
TORSDOF 3
