REMARK SMILES CC(C(=O)O)c1cccc(Oc2ccccc2)c1
REMARK SMILES IDX 6 1 18 2 10 3 9 4 8 5 7 6 2 7 1 8 3 9 4 10 5 11 11 13 12 14
REMARK SMILES IDX 13 15 17 16 14 17 16 18 15 19
REMARK H PARENT 5 12
REMARK Flexibility Score: inf
ROOT
ATOM      1  C   UNL     1      -1.508  -0.846   0.418  1.00  0.00    -0.030 A 
ATOM      2  C   UNL     1      -0.398  -0.389  -0.315  1.00  0.00     0.051 A 
ATOM      3  C   UNL     1       0.539  -1.299  -0.838  1.00  0.00     0.127 A 
ATOM      4  C   UNL     1       0.340  -2.671  -0.656  1.00  0.00     0.047 A 
ATOM      5  C   UNL     1      -0.760  -3.135   0.067  1.00  0.00     0.004 A 
ATOM      6  C   UNL     1      -1.678  -2.231   0.607  1.00  0.00     0.005 A 
ENDROOT
BRANCH   1   7
ATOM      7  C   UNL     1      -2.504   0.147   0.984  1.00  0.00     0.126 C 
ATOM      8  C   UNL     1      -3.893  -0.037   0.358  1.00  0.00     0.025 C 
BRANCH   7   9
ATOM      9  C   UNL     1      -2.549   0.056   2.486  1.00  0.00     0.310 C 
ATOM     10  O   UNL     1      -3.277  -0.799   3.059  1.00  0.00    -0.252 OA
BRANCH   9  11
ATOM     11  O   UNL     1      -1.738   0.892   3.247  1.00  0.00    -0.481 OA
ATOM     12  H   UNL     1      -1.737   0.836   4.258  1.00  0.00     0.296 HD
ENDBRANCH   9  11
ENDBRANCH   7   9
ENDBRANCH   1   7
BRANCH   3  13
ATOM     13  O   UNL     1       1.651  -0.873  -1.580  1.00  0.00    -0.457 OA
BRANCH  13  14
ATOM     14  C   UNL     1       2.342   0.333  -1.389  1.00  0.00     0.127 A 
ATOM     15  C   UNL     1       2.978   0.925  -2.487  1.00  0.00     0.047 A 
ATOM     16  C   UNL     1       2.453   0.935  -0.121  1.00  0.00     0.047 A 
ATOM     17  C   UNL     1       3.689   2.120  -2.333  1.00  0.00     0.004 A 
ATOM     18  C   UNL     1       3.165   2.129   0.030  1.00  0.00     0.004 A 
ATOM     19  C   UNL     1       3.779   2.723  -1.076  1.00  0.00     0.000 A 
ENDBRANCH  13  14
ENDBRANCH   3  13
TORSDOF 5
