REMARK SMILES COc1cc([C@@H]2c3cc4c(cc3[C@@H](O[C@@H]3O[C@@H]5CO[C@@H](c6cccs6)O[C@H]5[C@H](O)[C@H]3O)[C@H]3COC(=O)[C@H]23)OCO4)cc(OC)c1O
REMARK SMILES IDX 32 1 33 2 34 3 35 4 36 5 37 6 6 7 7 8 12 9 11 10 10 11 38 12
REMARK SMILES IDX 39 13 40 14 9 15 8 16 13 17 14 18 15 19 16 20 30 21 17 22
REMARK SMILES IDX 28 23 18 24 27 25 19 26 26 27 20 28 31 29 29 31 21 33 22 34
REMARK SMILES IDX 25 35 23 36 24 37 5 38 4 39 41 40 3 41 42 42 45 43 2 44 1 45
REMARK SMILES IDX 43 46 44 47 46 48
REMARK H PARENT 31 30 29 32 46 49
REMARK Flexibility Score: inf
ROOT
ATOM      1  C   UNL     1      -1.227  -0.800  -0.741  1.00  0.00     0.076 C 
ATOM      2  C   UNL     1      -0.654  -1.543  -1.957  1.00  0.00     0.240 C 
ATOM      3  O   UNL     1      -1.608  -2.576  -2.187  1.00  0.00    -0.465 OA
ATOM      4  C   UNL     1      -2.387  -2.775  -1.058  1.00  0.00     0.310 C 
ATOM      5  O   UNL     1      -3.245  -3.690  -0.962  1.00  0.00    -0.252 OA
ATOM      6  C   UNL     1      -1.956  -1.886   0.044  1.00  0.00     0.120 C 
ATOM      7  C   UNL     1      -2.979  -1.262   1.011  1.00  0.00     0.065 C 
ATOM      8  C   UNL     1      -2.292  -0.167   1.831  1.00  0.00    -0.030 A 
ATOM      9  C   UNL     1      -1.061   0.459   1.402  1.00  0.00    -0.011 A 
ATOM     10  C   UNL     1      -0.528   1.527   2.158  1.00  0.00     0.057 A 
ATOM     11  C   UNL     1      -1.212   1.939   3.295  1.00  0.00     0.166 A 
ATOM     12  O   UNL     1      -0.884   2.956   4.171  1.00  0.00    -0.454 OA
ATOM     13  C   UNL     1      -1.892   3.007   5.189  1.00  0.00     0.468 C 
ATOM     14  O   UNL     1      -2.815   1.962   4.851  1.00  0.00    -0.454 OA
ATOM     15  C   UNL     1      -2.361   1.348   3.699  1.00  0.00     0.166 A 
ATOM     16  C   UNL     1      -2.937   0.295   3.001  1.00  0.00     0.055 A 
ATOM     17  C   UNL     1      -0.278  -0.032   0.185  1.00  0.00     0.159 C 
ENDROOT
BRANCH  17  18
ATOM     18  O   UNL     1       0.762  -0.894   0.625  1.00  0.00    -0.341 OA
BRANCH  18  19
ATOM     19  C   UNL     1       2.037  -0.308   0.448  1.00  0.00     0.282 C 
ATOM     20  O   UNL     1       2.371  -0.320  -0.934  1.00  0.00    -0.341 OA
ATOM     21  C   UNL     1       3.067  -1.130   1.260  1.00  0.00     0.202 C 
ATOM     22  C   UNL     1       3.617   0.321  -1.128  1.00  0.00     0.179 C 
ATOM     23  C   UNL     1       4.500  -0.602   1.016  1.00  0.00     0.180 C 
ATOM     24  C   UNL     1       3.938   0.440  -2.615  1.00  0.00     0.199 C 
ATOM     25  C   UNL     1       4.746  -0.501  -0.493  1.00  0.00     0.184 C 
ATOM     26  O   UNL     1       5.226   0.999  -2.786  1.00  0.00    -0.345 OA
ATOM     27  O   UNL     1       5.988   0.120  -0.753  1.00  0.00    -0.339 OA
ATOM     28  C   UNL     1       6.203   0.179  -2.158  1.00  0.00     0.292 C 
BRANCH  21  29
ATOM     29  O   UNL     1       2.751  -1.114   2.630  1.00  0.00    -0.385 OA
ATOM     30  H   UNL     1       2.787  -0.169   2.936  1.00  0.00     0.211 HD
ENDBRANCH  21  29
BRANCH  23  31
ATOM     31  O   UNL     1       5.441  -1.476   1.583  1.00  0.00    -0.387 OA
ATOM     32  H   UNL     1       5.455  -1.289   2.557  1.00  0.00     0.211 HD
ENDBRANCH  23  31
BRANCH  28  33
ATOM     33  C   UNL     1       7.558   0.764  -2.420  1.00  0.00     0.060 A 
ATOM     34  C   UNL     1       8.676   0.644  -1.599  1.00  0.00     0.021 A 
ATOM     35  S   UNL     1       8.022   1.557  -3.829  1.00  0.00    -0.144 S 
ATOM     36  C   UNL     1       9.826   1.230  -2.139  1.00  0.00     0.012 A 
ATOM     37  C   UNL     1       9.628   1.793  -3.393  1.00  0.00     0.065 A 
ENDBRANCH  28  33
ENDBRANCH  18  19
ENDBRANCH  17  18
BRANCH   7  38
ATOM     38  C   UNL     1      -4.244  -0.756   0.321  1.00  0.00    -0.032 A 
ATOM     39  C   UNL     1      -4.359   0.566  -0.148  1.00  0.00     0.055 A 
ATOM     40  C   UNL     1      -5.326  -1.633   0.144  1.00  0.00     0.055 A 
ATOM     41  C   UNL     1      -5.535   1.007  -0.778  1.00  0.00     0.164 A 
ATOM     42  C   UNL     1      -6.504  -1.210  -0.495  1.00  0.00     0.164 A 
ATOM     43  C   UNL     1      -6.602   0.117  -0.951  1.00  0.00     0.200 A 
BRANCH  41  44
ATOM     44  O   UNL     1      -5.682   2.323  -1.246  1.00  0.00    -0.493 OA
ATOM     45  C   UNL     1      -4.689   3.337  -1.131  1.00  0.00     0.278 C 
ENDBRANCH  41  44
BRANCH  42  46
ATOM     46  O   UNL     1      -7.592  -2.075  -0.694  1.00  0.00    -0.493 OA
ATOM     47  C   UNL     1      -7.615  -3.447  -0.314  1.00  0.00     0.278 C 
ENDBRANCH  42  46
BRANCH  43  48
ATOM     48  O   UNL     1      -7.761   0.569  -1.584  1.00  0.00    -0.502 OA
ATOM     49  H   UNL     1      -8.564  -0.029  -1.737  1.00  0.00     0.293 HD
ENDBRANCH  43  48
ENDBRANCH   7  38
TORSDOF 9
