REMARK SMILES CC(=O)S[C@@H]1CC2=CC(=O)CC[C@]2(C)[C@H]2CC[C@@]3(C)[C@@H](CC[C@@]34CCC(=O)O4)[C@H]12
REMARK SMILES IDX 4 1 5 2 20 3 21 4 18 5 29 6 22 7 23 8 19 9 17 10 15 11 24 12
REMARK SMILES IDX 28 13 16 14 13 15 6 16 25 17 26 18 7 19 12 20 14 21 27 22
REMARK SMILES IDX 8 23 11 24 9 25 10 26 2 27 1 28 3 29
REMARK H PARENT
REMARK Flexibility Score: inf
ROOT
ATOM      1  S   UNL     1      -0.847   1.078   2.633  1.00  0.00    -0.085 SA
ENDROOT
BRANCH   1   2
ATOM      2  C   UNL     1      -1.396   1.210   0.857  1.00  0.00     0.062 C 
ATOM      3  C   UNL     1       1.002   0.718   0.062  1.00  0.00     0.003 C 
ATOM      4  C   UNL     1       1.431   2.162  -0.189  1.00  0.00     0.009 C 
ATOM      5  C   UNL     1       1.910  -0.122  -0.837  1.00  0.00     0.011 C 
ATOM      6  C   UNL     1      -0.508   0.390  -0.108  1.00  0.00     0.011 C 
ATOM      7  C   UNL     1       2.912   2.081  -0.575  1.00  0.00     0.050 C 
ATOM      8  C   UNL     1       3.287   0.576  -0.601  1.00  0.00     0.118 C 
ATOM      9  C   UNL     1       1.559  -0.006  -2.363  1.00  0.00     0.016 C 
ATOM     10  C   UNL     1       1.754  -1.593  -0.380  1.00  0.00     0.011 C 
ATOM     11  C   UNL     1      -0.791  -1.142   0.072  1.00  0.00     0.003 C 
ATOM     12  C   UNL     1       4.070   0.209   0.698  1.00  0.00     0.061 C 
ATOM     13  O   UNL     1       4.217   0.320  -1.651  1.00  0.00    -0.458 OA
ATOM     14  C   UNL     1       0.300  -2.082  -0.567  1.00  0.00     0.005 C 
ATOM     15  C   UNL     1      -2.257  -1.495  -0.393  1.00  0.00    -0.008 C 
ATOM     16  C   UNL     1      -2.913   0.879   0.729  1.00  0.00     0.047 C 
ATOM     17  C   UNL     1       5.553   0.317   0.315  1.00  0.00     0.127 C 
ATOM     18  C   UNL     1       5.501   0.210  -1.157  1.00  0.00     0.306 C 
ATOM     19  C   UNL     1      -3.274  -0.504   0.200  1.00  0.00    -0.059 C 
ATOM     20  C   UNL     1      -2.636  -2.928   0.115  1.00  0.00     0.019 C 
ATOM     21  C   UNL     1      -2.398  -1.460  -1.951  1.00  0.00     0.016 C 
ATOM     22  O   UNL     1       6.513  -0.005  -1.879  1.00  0.00    -0.252 OA
ATOM     23  C   UNL     1      -4.573  -0.848   0.268  1.00  0.00     0.047 C 
ATOM     24  C   UNL     1      -4.068  -3.333  -0.280  1.00  0.00     0.081 C 
ATOM     25  C   UNL     1      -5.035  -2.207  -0.076  1.00  0.00     0.155 C 
ATOM     26  O   UNL     1      -6.269  -2.428  -0.170  1.00  0.00    -0.295 OA
ENDBRANCH   1   2
BRANCH   1  27
ATOM     27  C   UNL     1      -1.577   2.657   3.132  1.00  0.00     0.186 C 
ATOM     28  C   UNL     1      -0.818   3.940   2.933  1.00  0.00     0.101 C 
ATOM     29  O   UNL     1      -2.694   2.675   3.633  1.00  0.00    -0.288 OA
ENDBRANCH   1  27
TORSDOF 2
