REMARK SMILES CC1=C(/C=C/C(C)=C/C=C/C(C)=C/CO)C(C)(C)CCC1
REMARK SMILES IDX 10 1 9 2 11 3 12 4 13 5 14 6 15 7 8 9 6 10 7 11 5 12 4 13
REMARK SMILES IDX 3 14 2 15 16 16 1 17 21 18 19 19 17 20 18 21 20 22
REMARK H PARENT 15 8
REMARK Flexibility Score: inf
ROOT
ATOM      1  C   UNL     1       3.866   1.005  -0.700  1.00  0.00     0.003 C 
ATOM      2  C   UNL     1       3.078   0.006  -0.280  1.00  0.00     0.001 C 
ENDROOT
BRANCH   1   3
ATOM      3  C   UNL     1       5.341   1.029  -0.500  1.00  0.00    -0.053 C 
ATOM      4  C   UNL     1       6.052  -0.197   0.034  1.00  0.00     0.044 C 
ATOM      5  C   UNL     1       5.995   2.176  -0.769  1.00  0.00     0.004 C 
BRANCH   5   6
ATOM      6  C   UNL     1       7.476   2.368  -0.583  1.00  0.00     0.184 C 
BRANCH   6   7
ATOM      7  O   UNL     1       7.837   3.690  -0.878  1.00  0.00    -0.392 OA
ATOM      8  H   UNL     1       7.841   3.771  -1.868  1.00  0.00     0.210 HD
ENDBRANCH   6   7
ENDBRANCH   5   6
ENDBRANCH   1   3
BRANCH   2   9
ATOM      9  C   UNL     1       1.615   0.057  -0.496  1.00  0.00     0.003 C 
ATOM     10  C   UNL     1       0.755  -0.893  -0.084  1.00  0.00    -0.051 C 
ATOM     11  C   UNL     1       1.234  -2.146   0.614  1.00  0.00     0.044 C 
BRANCH  10  12
ATOM     12  C   UNL     1      -0.695  -0.659  -0.297  1.00  0.00     0.004 C 
ATOM     13  C   UNL     1      -1.639  -1.155   0.512  1.00  0.00     0.004 C 
BRANCH  13  14
ATOM     14  C   UNL     1      -3.072  -0.822   0.317  1.00  0.00    -0.043 C 
ATOM     15  C   UNL     1      -3.746  -1.316  -0.759  1.00  0.00    -0.070 C 
ATOM     16  C   UNL     1      -3.705   0.181   1.296  1.00  0.00    -0.010 C 
ATOM     17  C   UNL     1      -3.106  -2.322  -1.687  1.00  0.00     0.040 C 
ATOM     18  C   UNL     1      -5.210  -1.016  -0.998  1.00  0.00     0.031 C 
ATOM     19  C   UNL     1      -5.251   0.231   1.158  1.00  0.00     0.011 C 
ATOM     20  C   UNL     1      -3.110   1.582   1.024  1.00  0.00     0.016 C 
ATOM     21  C   UNL     1      -3.379  -0.212   2.754  1.00  0.00     0.016 C 
ATOM     22  C   UNL     1      -5.685   0.255  -0.302  1.00  0.00     0.005 C 
ENDBRANCH  13  14
ENDBRANCH  10  12
ENDBRANCH   2   9
TORSDOF 6
