REMARK SMILES OC[C@H]1O[C@@H](n2cnc3c2N=CNC[C@H]3O)C[C@@H]1O
REMARK SMILES IDX 3 1 4 2 5 3 17 4 18 5 2 6 1 7 19 9 6 11 7 12 10 13 8 14 9 15
REMARK SMILES IDX 11 16 12 17 13 18 14 20 15 22 16 24
REMARK H PARENT 1 8 19 10 13 19 16 25
REMARK Flexibility Score: 90.00
ROOT
ATOM      1  C   UNL     1      -2.482  -0.723  -1.442  1.00  0.00     0.175 C 
ATOM      2  O   UNL     1      -1.201  -1.269  -1.202  1.00  0.00    -0.350 OA
ATOM      3  C   UNL     1      -1.113  -1.563   0.173  1.00  0.00     0.225 C 
ATOM      4  C   UNL     1      -2.098  -0.686   0.923  1.00  0.00     0.090 C 
ATOM      5  C   UNL     1      -3.183  -0.455  -0.098  1.00  0.00     0.150 C 
ENDROOT
BRANCH   1   6
ATOM      6  C   UNL     1      -2.338   0.562  -2.266  1.00  0.00     0.190 C 
BRANCH   6   7
ATOM      7  O   UNL     1      -1.676   0.281  -3.468  1.00  0.00    -0.394 OA
ATOM      8  H   UNL     1      -1.596   1.147  -3.947  1.00  0.00     0.210 HD
ENDBRANCH   6   7
ENDBRANCH   1   6
BRANCH   5   9
ATOM      9  O   UNL     1      -4.269  -1.330   0.100  1.00  0.00    -0.390 OA
ATOM     10  H   UNL     1      -3.928  -2.263   0.057  1.00  0.00     0.211 HD
ENDBRANCH   5   9
BRANCH   3  11
ATOM     11  N   UNL     1       0.254  -1.346   0.655  1.00  0.00    -0.288 N 
ATOM     12  C   UNL     1       0.927  -2.134   1.517  1.00  0.00     0.203 A 
ATOM     13  C   UNL     1       1.074  -0.311   0.397  1.00  0.00     0.162 A 
ATOM     14  N   UNL     1       2.155  -1.655   1.807  1.00  0.00    -0.236 NA
ATOM     15  C   UNL     1       2.246  -0.502   1.110  1.00  0.00     0.115 A 
BRANCH  13  16
ATOM     16  N   UNL     1       0.733   0.748  -0.513  1.00  0.00    -0.219 NA
ATOM     17  C   UNL     1       1.390   1.822  -0.845  1.00  0.00     0.194 C 
ATOM     18  N   UNL     1       2.660   2.191  -0.296  1.00  0.00    -0.373 N 
ATOM     19  H   UNL     1       3.207   2.918  -0.810  1.00  0.00     0.161 HD
BRANCH  18  20
ATOM     20  C   UNL     1       3.105   1.837   1.045  1.00  0.00     0.152 CG0
ATOM     21  G   UNL     1       3.476   0.357   1.102  1.00  0.00     0.000 G0
ENDBRANCH  18  20
ENDBRANCH  13  16
BRANCH  15  22
ATOM     22  C   UNL     1       3.476   0.357   1.102  1.00  0.00     0.186 CG0
ATOM     23  G   UNL     1       3.105   1.837   1.045  1.00  0.00     0.000 G0
BRANCH  22  24
ATOM     24  O   UNL     1       4.268   0.097   2.235  1.00  0.00    -0.385 OA
ATOM     25  H   UNL     1       3.738   0.350   3.038  1.00  0.00     0.211 HD
ENDBRANCH  22  24
ENDBRANCH  15  22
ENDBRANCH   3  11
TORSDOF 5
