REMARK SMILES CC(C)OC(=O)CCC/C=C\C[C@@H]1[C@@H](CC[C@@H](O)CCc2ccccc2)[C@H](O)C[C@@H]1O
REMARK SMILES IDX 12 1 11 2 10 3 9 4 8 5 7 6 5 7 6 8 4 9 2 10 1 11 3 12 13 13
REMARK SMILES IDX 30 14 14 15 29 16 27 17 31 18 15 20 16 21 17 22 18 23 19 25
REMARK SMILES IDX 20 26 21 27 22 28 26 29 23 30 25 31 24 32 28 33
REMARK H PARENT 31 19 18 24 28 34
REMARK Flexibility Score: inf
ROOT
ATOM      1  C   UNL     1      -1.037   0.654  -0.403  1.00  0.00     0.033 C 
ENDROOT
BRANCH   1   2
ATOM      2  C   UNL     1      -1.955   1.846  -0.261  1.00  0.00    -0.031 C 
ATOM      3  C   UNL     1      -3.296   1.790  -0.376  1.00  0.00    -0.031 C 
BRANCH   3   4
ATOM      4  C   UNL     1      -4.086   0.520  -0.583  1.00  0.00     0.027 C 
BRANCH   4   5
ATOM      5  C   UNL     1      -4.328  -0.231   0.738  1.00  0.00     0.016 C 
BRANCH   5   6
ATOM      6  C   UNL     1      -5.310   0.493   1.679  1.00  0.00     0.123 C 
BRANCH   6   7
ATOM      7  C   UNL     1      -6.738   0.170   1.356  1.00  0.00     0.306 C 
ATOM      8  O   UNL     1      -7.446  -0.442   2.204  1.00  0.00    -0.252 OA
BRANCH   7   9
ATOM      9  O   UNL     1      -7.279   0.560   0.124  1.00  0.00    -0.463 OA
BRANCH   9  10
ATOM     10  C   UNL     1      -8.587   0.193  -0.316  1.00  0.00     0.170 C 
ATOM     11  C   UNL     1      -8.622  -1.292  -0.699  1.00  0.00     0.052 C 
ATOM     12  C   UNL     1      -8.964   1.061  -1.516  1.00  0.00     0.052 C 
ENDBRANCH   9  10
ENDBRANCH   7   9
ENDBRANCH   6   7
ENDBRANCH   5   6
ENDBRANCH   4   5
ENDBRANCH   3   4
ENDBRANCH   1   2
BRANCH   1  13
ATOM     13  C   UNL     1       0.234   0.778   0.474  1.00  0.00     0.027 C 
ATOM     14  C   UNL     1      -0.038   0.621   1.981  1.00  0.00     0.120 C 
ATOM     15  C   UNL     1       1.227  -0.369   0.133  1.00  0.00     0.024 C 
ATOM     16  C   UNL     1       0.076  -0.868   2.251  1.00  0.00     0.064 C 
ATOM     17  C   UNL     1       1.192  -1.348   1.332  1.00  0.00     0.120 C 
BRANCH  14  18
ATOM     18  O   UNL     1      -1.291   1.121   2.370  1.00  0.00    -0.393 OA
ATOM     19  H   UNL     1      -1.336   1.041   3.358  1.00  0.00     0.210 HD
ENDBRANCH  14  18
BRANCH  15  20
ATOM     20  C   UNL     1       2.664   0.143  -0.115  1.00  0.00     0.009 C 
BRANCH  20  21
ATOM     21  C   UNL     1       2.814   0.830  -1.483  1.00  0.00     0.032 C 
BRANCH  21  22
ATOM     22  C   UNL     1       4.172   1.545  -1.676  1.00  0.00     0.114 C 
BRANCH  22  23
ATOM     23  O   UNL     1       4.330   2.580  -0.736  1.00  0.00    -0.393 OA
ATOM     24  H   UNL     1       3.759   3.331  -1.039  1.00  0.00     0.210 HD
ENDBRANCH  22  23
BRANCH  22  25
ATOM     25  C   UNL     1       5.390   0.587  -1.662  1.00  0.00     0.036 C 
BRANCH  25  26
ATOM     26  C   UNL     1       6.073   0.449  -0.290  1.00  0.00     0.038 C 
BRANCH  26  27
ATOM     27  C   UNL     1       7.111  -0.642  -0.327  1.00  0.00    -0.048 A 
ATOM     28  C   UNL     1       8.462  -0.336  -0.561  1.00  0.00     0.004 A 
ATOM     29  C   UNL     1       6.725  -1.986  -0.179  1.00  0.00     0.004 A 
ATOM     30  C   UNL     1       9.414  -1.358  -0.626  1.00  0.00     0.000 A 
ATOM     31  C   UNL     1       7.681  -3.004  -0.248  1.00  0.00     0.000 A 
ATOM     32  C   UNL     1       9.024  -2.691  -0.473  1.00  0.00     0.000 A 
ENDBRANCH  26  27
ENDBRANCH  25  26
ENDBRANCH  22  25
ENDBRANCH  21  22
ENDBRANCH  20  21
ENDBRANCH  15  20
BRANCH  17  33
ATOM     33  O   UNL     1       0.930  -2.662   0.910  1.00  0.00    -0.393 OA
ATOM     34  H   UNL     1       1.755  -2.986   0.459  1.00  0.00     0.210 HD
ENDBRANCH  17  33
ENDBRANCH   1  13
TORSDOF 17
