REMARK SMILES CNC1(C)C2CCC(C2)C1(C)C
REMARK SMILES IDX 3 1 4 2 5 3 6 4 7 5 8 6 9 7 10 8 11 9 12 10 2 11 1 12
REMARK H PARENT 2 13
REMARK Flexibility Score: inf
ROOT
ATOM      1  C   UNL     1       0.502  -0.399  -0.316  1.00  0.00     0.023 C 
ATOM      2  C   UNL     1       0.844  -1.074  -1.680  1.00  0.00     0.029 C 
ATOM      3  C   UNL     1       0.726   1.149  -0.424  1.00  0.00     0.010 C 
ATOM      4  C   UNL     1       0.668   1.810   0.973  1.00  0.00     0.006 C 
ATOM      5  C   UNL     1      -0.832   1.804   1.296  1.00  0.00     0.004 C 
ATOM      6  C   UNL     1      -1.438   1.070   0.083  1.00  0.00    -0.003 C 
ATOM      7  C   UNL     1      -0.575   1.640  -1.021  1.00  0.00     0.009 C 
ATOM      8  C   UNL     1      -1.052  -0.451   0.067  1.00  0.00    -0.014 C 
ATOM      9  C   UNL     1      -1.345  -1.136   1.434  1.00  0.00     0.013 C 
ATOM     10  C   UNL     1      -1.953  -1.183  -0.969  1.00  0.00     0.013 C 
ENDROOT
BRANCH   1  11
ATOM     11  N   UNL     1       1.339  -1.008   0.755  1.00  0.00    -0.314 NA
ATOM     12  C   UNL     1       2.791  -0.867   0.572  1.00  0.00     0.102 C 
ATOM     13  H   UNL     1       1.135  -2.033   0.805  1.00  0.00     0.122 HD
ENDBRANCH   1  11
TORSDOF 1
