REMARK SMILES COc1ccccc1Oc1c(NS(=O)(=O)c2ccc(C(C)(C)C)cc2)nc(-c2ncccn2)nc1OCCO
REMARK SMILES IDX 10 1 11 2 26 3 27 4 34 5 35 6 9 7 8 8 3 9 4 10 5 11 7 12
REMARK SMILES IDX 6 13 2 14 1 15 12 16 13 18 14 19 15 20 16 21 17 22 25 23
REMARK SMILES IDX 18 24 24 25 19 26 20 27 21 28 22 29 23 30 36 31 37 32 38 33
REMARK SMILES IDX 39 34 28 36 29 37 33 38 30 39 32 40 31 41
REMARK H PARENT 12 17 39 35
REMARK Flexibility Score: inf
ROOT
ATOM      1  C   UNL     1      -1.410   1.250  -1.101  1.00  0.00     0.232 A 
ATOM      2  C   UNL     1      -0.431   0.708  -1.943  1.00  0.00     0.191 A 
ATOM      3  N   UNL     1      -0.169  -0.624  -1.909  1.00  0.00    -0.203 NA
ATOM      4  C   UNL     1      -0.829  -1.451  -1.057  1.00  0.00     0.203 A 
ATOM      5  N   UNL     1      -1.766  -0.942  -0.216  1.00  0.00    -0.186 NA
ATOM      6  C   UNL     1      -2.065   0.386  -0.205  1.00  0.00     0.263 A 
ENDROOT
BRANCH   1   7
ATOM      7  O   UNL     1      -1.679   2.627  -1.153  1.00  0.00    -0.444 OA
BRANCH   7   8
ATOM      8  C   UNL     1      -2.936   3.217  -0.958  1.00  0.00     0.169 A 
ATOM      9  C   UNL     1      -4.119   2.651  -1.484  1.00  0.00     0.161 A 
ATOM     10  C   UNL     1      -5.353   3.290  -1.243  1.00  0.00     0.050 A 
ATOM     11  C   UNL     1      -5.402   4.481  -0.516  1.00  0.00     0.004 A 
ATOM     12  C   UNL     1      -2.999   4.422  -0.247  1.00  0.00     0.051 A 
ATOM     13  C   UNL     1      -4.227   5.048  -0.023  1.00  0.00     0.004 A 
BRANCH   9  14
ATOM     14  O   UNL     1      -4.031   1.480  -2.252  1.00  0.00    -0.493 OA
ATOM     15  C   UNL     1      -5.149   0.767  -2.771  1.00  0.00     0.278 C 
ENDBRANCH   9  14
ENDBRANCH   7   8
ENDBRANCH   1   7
BRANCH   2  16
ATOM     16  N   UNL     1       0.345   1.548  -2.796  1.00  0.00    -0.260 N 
ATOM     17  H   UNL     1       0.473   1.247  -3.788  1.00  0.00     0.182 HD
BRANCH  16  18
ATOM     18  S   UNL     1       1.614   2.494  -2.097  1.00  0.00     0.263 S 
ATOM     19  O   UNL     1       2.458   3.085  -3.192  1.00  0.00    -0.201 OA
ATOM     20  O   UNL     1       1.036   3.617  -1.281  1.00  0.00    -0.201 OA
BRANCH  18  21
ATOM     21  C   UNL     1       2.597   1.442  -1.085  1.00  0.00     0.087 A 
ATOM     22  C   UNL     1       3.721   0.804  -1.615  1.00  0.00     0.022 A 
ATOM     23  C   UNL     1       2.196   1.155   0.223  1.00  0.00     0.022 A 
ATOM     24  C   UNL     1       4.451  -0.104  -0.842  1.00  0.00     0.005 A 
ATOM     25  C   UNL     1       2.920   0.247   0.999  1.00  0.00     0.005 A 
ATOM     26  C   UNL     1       4.068  -0.399   0.488  1.00  0.00    -0.043 A 
BRANCH  26  27
ATOM     27  C   UNL     1       4.834  -1.407   1.372  1.00  0.00    -0.013 C 
ATOM     28  C   UNL     1       3.917  -2.610   1.683  1.00  0.00     0.016 C 
ATOM     29  C   UNL     1       5.251  -0.725   2.694  1.00  0.00     0.016 C 
ATOM     30  C   UNL     1       6.119  -1.949   0.700  1.00  0.00     0.016 C 
ENDBRANCH  26  27
ENDBRANCH  18  21
ENDBRANCH  16  18
ENDBRANCH   2  16
BRANCH   6  31
ATOM     31  O   UNL     1      -2.993   0.893   0.713  1.00  0.00    -0.472 OA
BRANCH  31  32
ATOM     32  C   UNL     1      -3.623   0.103   1.720  1.00  0.00     0.259 C 
BRANCH  32  33
ATOM     33  C   UNL     1      -2.641  -0.240   2.839  1.00  0.00     0.197 C 
BRANCH  33  34
ATOM     34  O   UNL     1      -2.142   0.934   3.421  1.00  0.00    -0.393 OA
ATOM     35  H   UNL     1      -2.747   1.157   4.175  1.00  0.00     0.210 HD
ENDBRANCH  33  34
ENDBRANCH  32  33
ENDBRANCH  31  32
ENDBRANCH   6  31
BRANCH   4  36
ATOM     36  C   UNL     1      -0.491  -2.879  -1.004  1.00  0.00     0.197 A 
ATOM     37  N   UNL     1      -1.187  -3.717  -0.187  1.00  0.00    -0.234 NA
ATOM     38  N   UNL     1       0.538  -3.365  -1.751  1.00  0.00    -0.234 NA
ATOM     39  C   UNL     1      -0.875  -5.037  -0.108  1.00  0.00     0.115 A 
ATOM     40  C   UNL     1       0.881  -4.678  -1.697  1.00  0.00     0.115 A 
ATOM     41  C   UNL     1       0.176  -5.549  -0.868  1.00  0.00     0.040 A 
ENDBRANCH   4  36
TORSDOF 12
