REMARK SMILES O=C1NC(=O)C(c2ccccc2)(c2ccccc2)N1
REMARK SMILES IDX 1 1 2 2 3 3 4 4 5 5 6 6 19 7 7 10 8 11 12 12 9 13 11 14
REMARK SMILES IDX 10 15 13 16 14 17 18 18 15 19 17 20 16 21
REMARK H PARENT 3 8 19 9
REMARK Flexibility Score: inf
ROOT
ATOM      1  O   UNL     1       0.269   4.262  -0.260  1.00  0.00    -0.248 OA
ATOM      2  C   UNL     1       0.163   3.042  -0.548  1.00  0.00     0.322 C 
ATOM      3  N   UNL     1       0.026   2.563  -1.869  1.00  0.00    -0.275 N 
ATOM      4  C   UNL     1      -0.061   1.154  -1.716  1.00  0.00     0.263 C 
ATOM      5  O   UNL     1      -0.219   0.372  -2.691  1.00  0.00    -0.271 OA
ATOM      6  C   UNL     1       0.033   0.719  -0.268  1.00  0.00     0.172 C 
ATOM      7  N   UNL     1       0.167   2.006   0.423  1.00  0.00    -0.316 N 
ATOM      8  H   UNL     1      -0.017   3.117  -2.753  1.00  0.00     0.174 HD
ATOM      9  H   UNL     1       0.274   2.143   1.454  1.00  0.00     0.167 HD
ENDROOT
BRANCH   6  10
ATOM     10  C   UNL     1       1.270  -0.125   0.049  1.00  0.00    -0.008 A 
ATOM     11  C   UNL     1       2.346  -0.265  -0.856  1.00  0.00     0.007 A 
ATOM     12  C   UNL     1       1.390  -0.715   1.325  1.00  0.00     0.007 A 
ATOM     13  C   UNL     1       3.475  -1.014  -0.509  1.00  0.00     0.000 A 
ATOM     14  C   UNL     1       2.521  -1.463   1.665  1.00  0.00     0.000 A 
ATOM     15  C   UNL     1       3.560  -1.616   0.747  1.00  0.00     0.000 A 
ENDBRANCH   6  10
BRANCH   6  16
ATOM     16  C   UNL     1      -1.264   0.003   0.111  1.00  0.00    -0.008 A 
ATOM     17  C   UNL     1      -2.313   0.667   0.783  1.00  0.00     0.007 A 
ATOM     18  C   UNL     1      -1.462  -1.338  -0.281  1.00  0.00     0.007 A 
ATOM     19  C   UNL     1      -3.501  -0.004   1.087  1.00  0.00     0.000 A 
ATOM     20  C   UNL     1      -2.652  -2.003   0.027  1.00  0.00     0.000 A 
ATOM     21  C   UNL     1      -3.668  -1.339   0.714  1.00  0.00     0.000 A 
ENDBRANCH   6  16
TORSDOF 2
