REMARK SMILES Cc1nccn1CC1CCc2c(c3ccccc3n2C)C1=O
REMARK SMILES IDX 7 1 8 2 20 3 19 4 11 5 18 6 12 7 10 8 13 9 17 10 21 11 9 12
REMARK SMILES IDX 14 13 16 14 22 15 15 16 6 17 5 18 2 19 4 20 3 21 1 22
REMARK H PARENT
REMARK Flexibility Score: inf
ROOT
ATOM      1  C   UNL     1       2.608   0.419   1.189  1.00  0.00     0.135 C 
ENDROOT
BRANCH   1   2
ATOM      2  C   UNL     1       1.385  -0.320   0.599  1.00  0.00     0.081 C 
ATOM      3  C   UNL     1      -3.434  -2.707   0.785  1.00  0.00     0.150 C 
ATOM      4  N   UNL     1      -2.752  -1.426   0.595  1.00  0.00    -0.347 N 
ATOM      5  C   UNL     1      -1.424  -1.173   0.725  1.00  0.00     0.029 A 
ATOM      6  C   UNL     1      -3.290  -0.291   0.093  1.00  0.00     0.049 A 
ATOM      7  C   UNL     1      -1.127   0.110   0.308  1.00  0.00     0.047 A 
ATOM      8  C   UNL     1      -0.354  -2.156   1.110  1.00  0.00     0.055 C 
ATOM      9  C   UNL     1      -2.323   0.676  -0.086  1.00  0.00     0.011 A 
ATOM     10  C   UNL     1      -4.621  -0.057  -0.267  1.00  0.00     0.027 A 
ATOM     11  C   UNL     1       0.247   0.627   0.254  1.00  0.00     0.170 C 
ATOM     12  C   UNL     1       0.908  -1.413   1.595  1.00  0.00     0.020 C 
ATOM     13  C   UNL     1      -2.624   1.928  -0.623  1.00  0.00     0.011 A 
ATOM     14  C   UNL     1      -4.952   1.201  -0.802  1.00  0.00     0.002 A 
ATOM     15  O   UNL     1       0.471   1.796  -0.158  1.00  0.00    -0.294 OA
ATOM     16  C   UNL     1      -3.959   2.189  -0.977  1.00  0.00     0.001 A 
ENDBRANCH   1   2
BRANCH   1  17
ATOM     17  N   UNL     1       3.331   1.182   0.166  1.00  0.00    -0.334 N 
ATOM     18  C   UNL     1       3.359   2.521   0.047  1.00  0.00     0.107 A 
ATOM     19  C   UNL     1       4.134   0.721  -0.822  1.00  0.00     0.105 A 
ATOM     20  C   UNL     1       4.160   2.842  -1.025  1.00  0.00     0.131 A 
ATOM     21  N   UNL     1       4.647   1.714  -1.580  1.00  0.00    -0.242 NA
ATOM     22  C   UNL     1       4.401  -0.725  -1.107  1.00  0.00     0.087 C 
ENDBRANCH   1  17
TORSDOF 2
