REMARK SMILES CCCC(C)(COC(N)=O)COC(N)=O
REMARK SMILES IDX 4 1 5 2 3 3 2 4 1 5 6 6 7 7 8 8 9 9 10 10 11 13 12 14 13 15
REMARK SMILES IDX 14 16 15 17
REMARK H PARENT 9 11 9 12 14 18 14 19
REMARK Flexibility Score: inf
ROOT
ATOM      1  C   UNL     1       0.322  -0.357   0.293  1.00  0.00     0.036 C 
ATOM      2  C   UNL     1       1.849  -0.192   0.486  1.00  0.00     0.018 C 
ENDROOT
BRANCH   1   3
ATOM      3  C   UNL     1      -0.338  -0.250   1.713  1.00  0.00     0.013 C 
BRANCH   3   4
ATOM      4  C   UNL     1      -1.807  -0.700   1.879  1.00  0.00    -0.003 C 
ATOM      5  C   UNL     1      -2.831   0.213   1.207  1.00  0.00     0.004 C 
ENDBRANCH   3   4
ENDBRANCH   1   3
BRANCH   1   6
ATOM      6  C   UNL     1      -0.164   0.765  -0.663  1.00  0.00     0.245 C 
BRANCH   6   7
ATOM      7  O   UNL     1      -0.041   2.048  -0.051  1.00  0.00    -0.449 OA
BRANCH   7   8
ATOM      8  C   UNL     1      -0.423   3.230  -0.691  1.00  0.00     0.404 C 
ATOM      9  N   UNL     1      -0.276   4.474  -0.013  1.00  0.00    -0.335 N 
ATOM     10  O   UNL     1      -0.896   3.206  -1.860  1.00  0.00    -0.225 OA
ATOM     11  H   UNL     1      -0.557   5.366  -0.476  1.00  0.00     0.163 HD
ATOM     12  H   UNL     1       0.113   4.501   0.955  1.00  0.00     0.163 HD
ENDBRANCH   7   8
ENDBRANCH   6   7
ENDBRANCH   1   6
BRANCH   1  13
ATOM     13  C   UNL     1       0.030  -1.743  -0.345  1.00  0.00     0.245 C 
BRANCH  13  14
ATOM     14  O   UNL     1       0.712  -1.910  -1.591  1.00  0.00    -0.449 OA
BRANCH  14  15
ATOM     15  C   UNL     1       1.912  -2.616  -1.737  1.00  0.00     0.404 C 
ATOM     16  N   UNL     1       2.529  -2.691  -3.019  1.00  0.00    -0.335 N 
ATOM     17  O   UNL     1       2.453  -3.185  -0.751  1.00  0.00    -0.225 OA
ATOM     18  H   UNL     1       2.089  -2.221  -3.841  1.00  0.00     0.163 HD
ATOM     19  H   UNL     1       3.424  -3.212  -3.147  1.00  0.00     0.163 HD
ENDBRANCH  14  15
ENDBRANCH  13  14
ENDBRANCH   1  13
TORSDOF 8
