REMARK SMILES COc1cccc2c1C(=O)c1c(O)c3c(c(O)c1C2=O)C[C@@](O)(C(C)=O)C[C@@H]3O[C@H]1C[C@H](N)[C@H](O)[C@H](C)O1
REMARK SMILES IDX 29 1 28 2 3 3 4 4 8 5 5 6 7 7 9 8 6 9 19 10 10 11 11 12
REMARK SMILES IDX 18 13 20 14 12 15 16 16 14 17 15 18 21 19 27 20 22 21 2 22
REMARK SMILES IDX 1 23 13 24 17 26 23 28 24 30 25 31 26 32 30 33 31 34 38 35
REMARK SMILES IDX 32 36 36 37 34 38 37 39 33 40 35 43
REMARK H PARENT 13 25 17 27 23 29 33 41 33 42 35 44
REMARK Flexibility Score: inf
ROOT
ATOM      1  O   UNL     1       1.584   0.530  -0.729  1.00  0.00    -0.344 OA
ENDROOT
BRANCH   1   2
ATOM      2  C   UNL     1       0.702  -0.193  -1.579  1.00  0.00     0.159 C 
ATOM      3  C   UNL     1      -5.367   1.256   2.607  1.00  0.00     0.130 A 
ATOM      4  C   UNL     1      -6.254   0.841   3.620  1.00  0.00     0.047 A 
ATOM      5  C   UNL     1      -4.555   0.293   1.963  1.00  0.00     0.076 A 
ATOM      6  C   UNL     1      -6.332  -0.502   3.985  1.00  0.00     0.005 A 
ATOM      7  C   UNL     1      -4.631  -1.058   2.348  1.00  0.00     0.038 A 
ATOM      8  C   UNL     1      -3.641   0.657   0.854  1.00  0.00     0.202 C 
ATOM      9  C   UNL     1      -5.528  -1.450   3.354  1.00  0.00     0.013 A 
ATOM     10  C   UNL     1      -3.784  -2.056   1.663  1.00  0.00     0.198 C 
ATOM     11  O   UNL     1      -3.886   1.678   0.157  1.00  0.00    -0.288 OA
ATOM     12  C   UNL     1      -2.514  -0.252   0.497  1.00  0.00     0.080 A 
ATOM     13  C   UNL     1      -2.584  -1.607   0.900  1.00  0.00     0.080 A 
ATOM     14  O   UNL     1      -4.133  -3.268   1.669  1.00  0.00    -0.288 OA
ATOM     15  C   UNL     1      -1.407   0.196  -0.263  1.00  0.00     0.133 A 
ATOM     16  C   UNL     1      -1.543  -2.498   0.539  1.00  0.00     0.131 A 
ATOM     17  C   UNL     1      -0.449  -0.722  -0.736  1.00  0.00     0.031 A 
ATOM     18  C   UNL     1      -0.504  -2.071  -0.311  1.00  0.00     0.008 A 
ATOM     19  C   UNL     1       0.497  -3.103  -0.804  1.00  0.00     0.083 C 
ATOM     20  C   UNL     1       1.463  -1.318  -2.299  1.00  0.00     0.081 C 
ATOM     21  C   UNL     1       1.806  -2.490  -1.359  1.00  0.00     0.129 C 
BRANCH   3  22
ATOM     22  O   UNL     1      -5.264   2.606   2.231  1.00  0.00    -0.496 OA
ATOM     23  C   UNL     1      -6.020   3.668   2.805  1.00  0.00     0.278 C 
ENDBRANCH   3  22
BRANCH  15  24
ATOM     24  O   UNL     1      -1.209   1.553  -0.541  1.00  0.00    -0.507 OA
ATOM     25  H   UNL     1      -1.641   2.302  -0.018  1.00  0.00     0.293 HD
ENDBRANCH  15  24
BRANCH  16  26
ATOM     26  O   UNL     1      -1.493  -3.809   1.026  1.00  0.00    -0.507 OA
ATOM     27  H   UNL     1      -1.982  -4.121   1.854  1.00  0.00     0.293 HD
ENDBRANCH  16  26
BRANCH  21  28
ATOM     28  O   UNL     1       2.632  -2.029  -0.306  1.00  0.00    -0.382 OA
ATOM     29  H   UNL     1       2.070  -1.664   0.425  1.00  0.00     0.212 HD
ENDBRANCH  21  28
BRANCH  21  30
ATOM     30  C   UNL     1       2.587  -3.554  -2.127  1.00  0.00     0.161 C 
ATOM     31  C   UNL     1       2.053  -4.223  -3.365  1.00  0.00     0.091 C 
ATOM     32  O   UNL     1       3.694  -3.890  -1.730  1.00  0.00    -0.297 OA
ENDBRANCH  21  30
ENDBRANCH   1   2
BRANCH   1  33
ATOM     33  C   UNL     1       1.964   1.785  -1.277  1.00  0.00     0.252 C 
ATOM     34  C   UNL     1       2.419   2.730  -0.151  1.00  0.00     0.083 C 
ATOM     35  O   UNL     1       2.971   1.635  -2.271  1.00  0.00    -0.347 OA
ATOM     36  C   UNL     1       3.760   2.279   0.445  1.00  0.00     0.087 C 
ATOM     37  C   UNL     1       4.169   1.101  -1.726  1.00  0.00     0.148 C 
ATOM     38  C   UNL     1       4.781   2.063  -0.687  1.00  0.00     0.160 C 
ATOM     39  C   UNL     1       5.150   0.827  -2.867  1.00  0.00     0.041 C 
BRANCH  36  40
ATOM     40  N   UNL     1       4.249   3.274   1.400  1.00  0.00    -0.325 NA
ATOM     41  H   UNL     1       3.559   3.344   2.183  1.00  0.00     0.119 HD
ATOM     42  H   UNL     1       5.133   2.911   1.827  1.00  0.00     0.119 HD
ENDBRANCH  36  40
BRANCH  38  43
ATOM     43  O   UNL     1       5.100   3.288  -1.302  1.00  0.00    -0.389 OA
ATOM     44  H   UNL     1       5.818   3.706  -0.758  1.00  0.00     0.211 HD
ENDBRANCH  38  43
ENDBRANCH   1  33
TORSDOF 9
