REMARK SMILES NS(=O)(=O)c1cc2c(cc1Cl)NCNS2(=O)=O
REMARK SMILES IDX 2 1 3 2 4 3 1 4 5 7 10 8 6 9 11 10 9 11 7 12 8 13 15 14
REMARK SMILES IDX 12 15 14 16 16 17 17 18 13 19
REMARK H PARENT 1 5 1 6 12 20 14 21
REMARK Flexibility Score: inf
ROOT
ATOM      1  S   UNL     1       3.411  -0.272  -0.247  1.00  0.00     0.239 S 
ATOM      2  O   UNL     1       4.087  -0.959   0.907  1.00  0.00    -0.207 OA
ATOM      3  O   UNL     1       3.913  -0.851  -1.540  1.00  0.00    -0.207 OA
ENDROOT
BRANCH   1   4
ATOM      4  N   UNL     1       3.803   1.413  -0.199  1.00  0.00    -0.225 NA
ATOM      5  H   UNL     1       4.837   1.490  -0.325  1.00  0.00     0.137 HD
ATOM      6  H   UNL     1       3.593   1.748   0.767  1.00  0.00     0.137 HD
ENDBRANCH   1   4
BRANCH   1   7
ATOM      7  C   UNL     1       1.663  -0.515  -0.138  1.00  0.00     0.102 A 
ATOM      8  C   UNL     1       1.110  -1.811  -0.083  1.00  0.00     0.063 A 
ATOM      9  C   UNL     1       0.808   0.597  -0.122  1.00  0.00     0.047 A 
ATOM     10  Cl  UNL     1       2.117  -3.255  -0.125  1.00  0.00    -0.083 Cl
ATOM     11  C   UNL     1      -0.278  -1.976   0.004  1.00  0.00     0.049 A 
ATOM     12  C   UNL     1      -0.578   0.424  -0.037  1.00  0.00     0.107 A 
ATOM     13  C   UNL     1      -1.127  -0.863   0.041  1.00  0.00     0.057 A 
ATOM     14  S   UNL     1      -1.652   1.809  -0.073  1.00  0.00     0.244 S 
ATOM     15  N   UNL     1      -2.549  -1.046   0.135  1.00  0.00    -0.370 N 
ATOM     16  N   UNL     1      -3.273   1.223  -0.273  1.00  0.00    -0.193 NA
ATOM     17  O   UNL     1      -1.546   2.574   1.216  1.00  0.00    -0.207 OA
ATOM     18  O   UNL     1      -1.300   2.704  -1.228  1.00  0.00    -0.207 OA
ATOM     19  C   UNL     1      -3.449   0.031   0.558  1.00  0.00     0.214 C 
ATOM     20  H   UNL     1      -2.956  -1.994  -0.034  1.00  0.00     0.161 HD
ATOM     21  H   UNL     1      -3.386   0.943  -1.274  1.00  0.00     0.143 HD
ENDBRANCH   1   7
TORSDOF 2
