REMARK SMILES CN1CC[C@]23c4c5ccc(O)c4O[C@H]2C(=O)CC[C@H]3[C@H]1C5
REMARK SMILES IDX 14 1 13 2 12 3 10 4 9 5 8 6 7 7 6 8 5 9 4 10 3 11 2 12 1 13
REMARK SMILES IDX 20 14 21 15 19 16 18 17 17 18 15 19 16 20 11 21
REMARK H PARENT 11 22
REMARK Flexibility Score: inf
ROOT
ATOM      1  C   UNL     1       1.443   1.484   1.114  1.00  0.00     0.251 C 
ATOM      2  O   UNL     1       2.657   0.801   0.770  1.00  0.00    -0.477 OA
ATOM      3  C   UNL     1       2.373  -0.311   0.004  1.00  0.00     0.166 A 
ATOM      4  C   UNL     1       3.267  -1.083  -0.743  1.00  0.00     0.158 A 
ATOM      5  C   UNL     1       2.733  -2.036  -1.632  1.00  0.00     0.050 A 
ATOM      6  C   UNL     1       1.336  -2.144  -1.804  1.00  0.00     0.008 A 
ATOM      7  C   UNL     1       0.466  -1.356  -1.026  1.00  0.00    -0.039 A 
ATOM      8  C   UNL     1       1.031  -0.524  -0.057  1.00  0.00     0.012 A 
ATOM      9  C   UNL     1       0.303   0.439   0.824  1.00  0.00     0.049 C 
ATOM     10  C   UNL     1      -0.149  -0.293   2.129  1.00  0.00     0.032 C 
ATOM     11  C   UNL     1      -1.639  -0.696   2.125  1.00  0.00     0.085 C 
ATOM     12  N   UNL     1      -2.072  -1.203   0.805  1.00  0.00    -0.303 NA
ATOM     13  C   UNL     1      -3.496  -1.571   0.841  1.00  0.00     0.105 C 
ATOM     14  C   UNL     1      -1.762  -0.316  -0.356  1.00  0.00     0.064 C 
ATOM     15  C   UNL     1      -0.992  -1.184  -1.389  1.00  0.00     0.055 C 
ATOM     16  C   UNL     1      -0.937   0.950   0.066  1.00  0.00     0.022 C 
ATOM     17  C   UNL     1      -0.549   1.865  -1.107  1.00  0.00     0.014 C 
ATOM     18  C   UNL     1       0.179   3.103  -0.585  1.00  0.00     0.080 C 
ATOM     19  C   UNL     1       1.356   2.759   0.296  1.00  0.00     0.174 C 
ATOM     20  O   UNL     1       2.259   3.575   0.398  1.00  0.00    -0.295 OA
ENDROOT
BRANCH   4  21
ATOM     21  O   UNL     1       4.644  -0.899  -0.647  1.00  0.00    -0.504 OA
ATOM     22  H   UNL     1       5.042  -0.211  -0.019  1.00  0.00     0.293 HD
ENDBRANCH   4  21
TORSDOF 1
