REMARK SMILES CC(C)NCC(O)c1ccc(NS(C)(=O)=O)cc1
REMARK SMILES IDX 6 1 5 2 4 3 2 5 1 6 3 7 7 8 8 10 9 11 18 12 10 13 17 14
REMARK SMILES IDX 11 15 12 16 13 18 14 19 15 20 16 21
REMARK H PARENT 4 4 7 9 12 17
REMARK Flexibility Score: inf
ROOT
ATOM      1  C   UNL     1       1.054  -0.925   0.932  1.00  0.00     0.158 C 
ENDROOT
BRANCH   1   2
ATOM      2  C   UNL     1       1.965  -0.339  -0.154  1.00  0.00     0.117 C 
BRANCH   2   3
ATOM      3  N   UNL     1       3.373  -0.597   0.178  1.00  0.00    -0.312 NA
ATOM      4  H   UNL     1       3.635  -0.025   1.016  1.00  0.00     0.123 HD
BRANCH   3   5
ATOM      5  C   UNL     1       4.281  -0.283  -0.940  1.00  0.00     0.047 C 
ATOM      6  C   UNL     1       4.496   1.232  -1.098  1.00  0.00     0.024 C 
ATOM      7  C   UNL     1       5.621  -0.983  -0.702  1.00  0.00     0.024 C 
ENDBRANCH   3   5
ENDBRANCH   2   3
ENDBRANCH   1   2
BRANCH   1   8
ATOM      8  O   UNL     1       1.247  -2.315   1.008  1.00  0.00    -0.387 OA
ATOM      9  H   UNL     1       0.826  -2.616   1.855  1.00  0.00     0.211 HD
ENDBRANCH   1   8
BRANCH   1  10
ATOM     10  C   UNL     1      -0.394  -0.610   0.625  1.00  0.00    -0.018 A 
ATOM     11  C   UNL     1      -1.092  -1.330  -0.359  1.00  0.00     0.008 A 
ATOM     12  C   UNL     1      -1.041   0.448   1.282  1.00  0.00     0.008 A 
ATOM     13  C   UNL     1      -2.419  -1.013  -0.659  1.00  0.00     0.027 A 
ATOM     14  C   UNL     1      -2.368   0.765   0.982  1.00  0.00     0.027 A 
ATOM     15  C   UNL     1      -3.075   0.032   0.010  1.00  0.00     0.048 A 
BRANCH  15  16
ATOM     16  N   UNL     1      -4.443   0.328  -0.329  1.00  0.00    -0.284 N 
ATOM     17  H   UNL     1      -4.899  -0.213  -1.098  1.00  0.00     0.180 HD
BRANCH  16  18
ATOM     18  S   UNL     1      -5.438   1.485   0.500  1.00  0.00     0.229 S 
ATOM     19  C   UNL     1      -5.732   0.956   2.174  1.00  0.00     0.183 C 
ATOM     20  O   UNL     1      -4.782   2.837   0.483  1.00  0.00    -0.207 OA
ATOM     21  O   UNL     1      -6.760   1.582  -0.209  1.00  0.00    -0.207 OA
ENDBRANCH  16  18
ENDBRANCH  15  16
ENDBRANCH   1  10
TORSDOF 7
