REMARK SMILES COc1ccc2c3c1O[C@H]1C(=O)CC[C@@]4(O)[C@@H](C2)N(C)CC[C@]314
REMARK SMILES IDX 3 1 8 2 9 3 10 4 11 5 12 6 13 7 14 8 15 9 17 10 18 11 6 12
REMARK SMILES IDX 5 13 4 14 7 15 23 16 22 17 21 18 19 19 20 20 2 21 1 22 16 23
REMARK H PARENT 16 24
REMARK Flexibility Score: inf
ROOT
ATOM      1  C   UNL     1       3.015  -0.630  -0.117  1.00  0.00     0.161 A 
ATOM      2  C   UNL     1       1.905   0.074   0.351  1.00  0.00     0.166 A 
ATOM      3  O   UNL     1       1.890   1.301   0.982  1.00  0.00    -0.477 OA
ATOM      4  C   UNL     1       0.550   1.814   1.025  1.00  0.00     0.253 C 
ATOM      5  C   UNL     1       0.439   2.947   0.022  1.00  0.00     0.174 C 
ATOM      6  O   UNL     1       1.086   3.962   0.232  1.00  0.00    -0.295 OA
ATOM      7  C   UNL     1      -0.437   2.912  -1.213  1.00  0.00     0.083 C 
ATOM      8  C   UNL     1      -1.008   1.527  -1.547  1.00  0.00     0.046 C 
ATOM      9  C   UNL     1      -1.522   0.796  -0.286  1.00  0.00     0.095 C 
ATOM     10  C   UNL     1      -2.089  -0.633  -0.614  1.00  0.00     0.093 C 
ATOM     11  C   UNL     1      -1.040  -1.571  -1.297  1.00  0.00     0.058 C 
ATOM     12  C   UNL     1       0.364  -1.403  -0.758  1.00  0.00    -0.038 A 
ATOM     13  C   UNL     1       1.453  -2.140  -1.259  1.00  0.00     0.008 A 
ATOM     14  C   UNL     1       2.773  -1.778  -0.912  1.00  0.00     0.051 A 
ATOM     15  C   UNL     1       0.638  -0.357   0.117  1.00  0.00     0.015 A 
ATOM     16  C   UNL     1      -0.361   0.575   0.716  1.00  0.00     0.075 C 
ATOM     17  C   UNL     1      -0.925  -0.056   2.013  1.00  0.00     0.035 C 
ATOM     18  C   UNL     1      -1.667  -1.382   1.741  1.00  0.00     0.086 C 
ATOM     19  N   UNL     1      -2.617  -1.310   0.605  1.00  0.00    -0.300 NA
ATOM     20  C   UNL     1      -3.955  -0.858   1.025  1.00  0.00     0.105 C 
ENDROOT
BRANCH   1  21
ATOM     21  O   UNL     1       4.302  -0.166   0.189  1.00  0.00    -0.493 OA
ATOM     22  C   UNL     1       5.501  -0.797  -0.245  1.00  0.00     0.278 C 
ENDBRANCH   1  21
BRANCH   9  23
ATOM     23  O   UNL     1      -2.563   1.568   0.275  1.00  0.00    -0.387 OA
ATOM     24  H   UNL     1      -2.172   2.329   0.776  1.00  0.00     0.211 HD
ENDBRANCH   9  23
TORSDOF 2
