REMARK SMILES CO[C@H]1O[C@H](COS(=O)(=O)O)[C@@H](O[C@@H]2O[C@@H](C(=O)O)[C@@H](O[C@H]3O[C@H](COS(=O)(=O)O)[C@@H](O[C@@H]4O[C@H](C(=O)O)[C@@H](O[C@H]5O[C@H](COS(=O)(=O)O)[C@@H](O)[C@H](O)[C@H]5NS(=O)(=O)O)[C@H](O)[C@H]4O)[C@H](OS(=O)(=O)O)[C@H]3NS(=O)(=O)O)[C@H](O)[C@H]2OS(=O)(=O)O)[C@H](O)[C@H]1NS(=O)(=O)O
REMARK SMILES IDX 22 1 23 2 24 3 31 4 64 5 70 6 21 7 20 8 14 9 15 10 78 11
REMARK SMILES IDX 16 12 76 13 13 14 12 15 3 16 4 17 86 18 5 19 84 20 2 21 1 22
REMARK SMILES IDX 87 23 88 25 89 26 90 27 91 28 6 30 7 31 8 32 9 33 10 34
REMARK SMILES IDX 11 35 85 37 79 39 80 40 81 41 82 42 83 43 17 45 18 46 19 47
REMARK SMILES IDX 77 49 71 51 72 53 73 54 74 55 75 56 25 58 26 59 27 60 28 61
REMARK SMILES IDX 29 62 30 63 65 65 66 66 67 67 68 68 69 69 32 71 33 72 34 73
REMARK SMILES IDX 62 74 35 75 60 76 39 77 63 78 36 80 37 81 38 82 61 84 40 86
REMARK SMILES IDX 41 87 42 88 54 89 43 90 52 91 50 92 55 93 56 95 57 96 58 97
REMARK SMILES IDX 59 98 44 100 45 101 46 102 47 103 48 104 49 105 53 107
REMARK SMILES IDX 51 109
REMARK H PARENT 87 24 91 29 11 36 85 38 83 44 19 48 77 50 71 52 75 57 30 64
REMARK H PARENT 69 70 63 79 38 83 61 85 55 94 59 99 49 106 53 108 51 110
REMARK Flexibility Score: inf
ROOT
ATOM      1  C   UNL     1      -1.535  -2.950  -0.928  1.00  0.00     0.272 C 
ATOM      2  O   UNL     1      -0.774  -2.779  -2.114  1.00  0.00    -0.342 OA
ATOM      3  C   UNL     1       0.070  -1.640  -2.021  1.00  0.00     0.180 C 
ATOM      4  C   UNL     1       1.122  -1.820  -0.900  1.00  0.00     0.185 C 
ATOM      5  C   UNL     1       0.397  -2.048   0.447  1.00  0.00     0.196 C 
ATOM      6  C   UNL     1      -0.612  -3.217   0.276  1.00  0.00     0.161 C 
ENDROOT
BRANCH   1   7
ATOM      7  O   UNL     1      -2.338  -1.801  -0.683  1.00  0.00    -0.341 OA
BRANCH   7   8
ATOM      8  C   UNL     1      -3.676  -1.959  -1.127  1.00  0.00     0.193 C 
ATOM      9  C   UNL     1      -4.917   0.345   0.111  1.00  0.00     0.285 C 
ATOM     10  O   UNL     1      -4.025   0.445  -0.991  1.00  0.00    -0.332 OA
ATOM     11  C   UNL     1      -4.630  -0.905   0.976  1.00  0.00     0.229 C 
ATOM     12  C   UNL     1      -4.127  -0.676  -1.854  1.00  0.00     0.262 C 
ATOM     13  C   UNL     1      -4.578  -2.180   0.105  1.00  0.00     0.182 C 
BRANCH   9  14
ATOM     14  O   UNL     1      -6.267   0.313  -0.341  1.00  0.00    -0.341 OA
BRANCH  14  15
ATOM     15  C   UNL     1      -7.006   1.467   0.025  1.00  0.00     0.183 C 
ATOM     16  C   UNL     1      -9.396   3.040  -0.417  1.00  0.00     0.270 C 
ATOM     17  O   UNL     1      -9.231   2.179   0.704  1.00  0.00    -0.342 OA
ATOM     18  C   UNL     1      -8.037   3.603  -0.887  1.00  0.00     0.159 C 
ATOM     19  C   UNL     1      -8.447   1.041   0.376  1.00  0.00     0.180 C 
ATOM     20  C   UNL     1      -7.046   2.445  -1.164  1.00  0.00     0.169 C 
BRANCH  16  21
ATOM     21  O   UNL     1     -10.059   2.392  -1.493  1.00  0.00    -0.354 OA
ATOM     22  C   UNL     1     -11.384   2.067  -1.123  1.00  0.00     0.198 C 
ENDBRANCH  16  21
BRANCH  18  23
ATOM     23  N   UNL     1      -8.250   4.434  -2.091  1.00  0.00    -0.181 NA
ATOM     24  H   UNL     1      -7.627   4.140  -2.881  1.00  0.00     0.144 HD
BRANCH  23  25
ATOM     25  S   UNL     1      -7.907   6.109  -1.771  1.00  0.00     0.333 S 
ATOM     26  O   UNL     1      -6.455   6.270  -1.414  1.00  0.00    -0.182 OA
ATOM     27  O   UNL     1      -8.204   6.920  -3.000  1.00  0.00    -0.182 OA
BRANCH  25  28
ATOM     28  O   UNL     1      -8.860   6.655  -0.499  1.00  0.00    -0.273 OA
ATOM     29  H   UNL     1      -9.793   6.552  -0.820  1.00  0.00     0.235 HD
ENDBRANCH  25  28
ENDBRANCH  23  25
ENDBRANCH  18  23
BRANCH  19  30
ATOM     30  C   UNL     1      -8.444   0.084   1.579  1.00  0.00     0.220 C 
BRANCH  30  31
ATOM     31  O   UNL     1      -9.770  -0.211   1.947  1.00  0.00    -0.245 OA
BRANCH  31  32
ATOM     32  S   UNL     1      -9.741  -1.472   3.081  1.00  0.00     0.397 S 
ATOM     33  O   UNL     1      -8.747  -1.178   4.173  1.00  0.00    -0.169 OA
ATOM     34  O   UNL     1     -11.106  -1.612   3.694  1.00  0.00    -0.169 OA
BRANCH  32  35
ATOM     35  O   UNL     1      -9.323  -2.915   2.323  1.00  0.00    -0.264 OA
ATOM     36  H   UNL     1      -9.811  -2.900   1.460  1.00  0.00     0.236 HD
ENDBRANCH  32  35
ENDBRANCH  31  32
ENDBRANCH  30  31
ENDBRANCH  19  30
BRANCH  20  37
ATOM     37  O   UNL     1      -5.762   2.945  -1.440  1.00  0.00    -0.388 OA
ATOM     38  H   UNL     1      -5.450   3.438  -0.638  1.00  0.00     0.211 HD
ENDBRANCH  20  37
ENDBRANCH  14  15
ENDBRANCH   9  14
BRANCH  11  39
ATOM     39  O   UNL     1      -3.388  -0.740   1.633  1.00  0.00    -0.237 OA
BRANCH  39  40
ATOM     40  S   UNL     1      -3.636  -0.277   3.250  1.00  0.00     0.397 S 
ATOM     41  O   UNL     1      -2.316   0.106   3.854  1.00  0.00    -0.169 OA
ATOM     42  O   UNL     1      -4.554   0.912   3.327  1.00  0.00    -0.169 OA
BRANCH  40  43
ATOM     43  O   UNL     1      -4.282  -1.562   4.122  1.00  0.00    -0.264 OA
ATOM     44  H   UNL     1      -5.266  -1.444   4.071  1.00  0.00     0.236 HD
ENDBRANCH  40  43
ENDBRANCH  39  40
ENDBRANCH  11  39
BRANCH  12  45
ATOM     45  C   UNL     1      -3.278  -0.439  -3.069  1.00  0.00     0.335 C 
ATOM     46  O   UNL     1      -3.367  -1.214  -4.058  1.00  0.00    -0.249 OA
BRANCH  45  47
ATOM     47  O   UNL     1      -2.382   0.625  -3.105  1.00  0.00    -0.479 OA
ATOM     48  H   UNL     1      -1.788   0.776  -3.913  1.00  0.00     0.296 HD
ENDBRANCH  45  47
ENDBRANCH  12  45
BRANCH  13  49
ATOM     49  O   UNL     1      -5.880  -2.525  -0.302  1.00  0.00    -0.387 OA
ATOM     50  H   UNL     1      -5.844  -3.468  -0.611  1.00  0.00     0.211 HD
ENDBRANCH  13  49
ENDBRANCH   7   8
ENDBRANCH   1   7
BRANCH   6  51
ATOM     51  N   UNL     1      -1.458  -3.422   1.465  1.00  0.00    -0.181 NA
ATOM     52  H   UNL     1      -1.486  -2.578   2.074  1.00  0.00     0.144 HD
BRANCH  51  53
ATOM     53  S   UNL     1      -0.959  -4.798   2.406  1.00  0.00     0.333 S 
ATOM     54  O   UNL     1      -1.267  -6.054   1.640  1.00  0.00    -0.182 OA
ATOM     55  O   UNL     1      -1.720  -4.809   3.701  1.00  0.00    -0.182 OA
BRANCH  53  56
ATOM     56  O   UNL     1       0.690  -4.726   2.736  1.00  0.00    -0.273 OA
ATOM     57  H   UNL     1       0.950  -5.655   2.958  1.00  0.00     0.235 HD
ENDBRANCH  53  56
ENDBRANCH  51  53
ENDBRANCH   6  51
BRANCH   3  58
ATOM     58  C   UNL     1       0.712  -1.397  -3.393  1.00  0.00     0.220 C 
BRANCH  58  59
ATOM     59  O   UNL     1       1.659  -2.402  -3.673  1.00  0.00    -0.245 OA
BRANCH  59  60
ATOM     60  S   UNL     1       2.207  -2.217  -5.271  1.00  0.00     0.397 S 
ATOM     61  O   UNL     1       2.242  -0.766  -5.678  1.00  0.00    -0.169 OA
ATOM     62  O   UNL     1       1.304  -2.979  -6.202  1.00  0.00    -0.169 OA
BRANCH  60  63
ATOM     63  O   UNL     1       3.767  -2.836  -5.386  1.00  0.00    -0.264 OA
ATOM     64  H   UNL     1       3.785  -3.599  -4.753  1.00  0.00     0.236 HD
ENDBRANCH  60  63
ENDBRANCH  59  60
ENDBRANCH  58  59
ENDBRANCH   3  58
BRANCH   5  65
ATOM     65  O   UNL     1       1.360  -2.396   1.424  1.00  0.00    -0.240 OA
BRANCH  65  66
ATOM     66  S   UNL     1       1.337  -1.303   2.728  1.00  0.00     0.397 S 
ATOM     67  O   UNL     1       0.102  -1.498   3.562  1.00  0.00    -0.169 OA
ATOM     68  O   UNL     1       1.395   0.116   2.237  1.00  0.00    -0.169 OA
BRANCH  66  69
ATOM     69  O   UNL     1       2.679  -1.591   3.695  1.00  0.00    -0.264 OA
ATOM     70  H   UNL     1       2.756  -2.578   3.742  1.00  0.00     0.236 HD
ENDBRANCH  66  69
ENDBRANCH  65  66
ENDBRANCH   5  65
BRANCH   4  71
ATOM     71  O   UNL     1       1.926  -0.646  -0.832  1.00  0.00    -0.341 OA
BRANCH  71  72
ATOM     72  C   UNL     1       3.313  -0.918  -0.678  1.00  0.00     0.283 C 
ATOM     73  O   UNL     1       3.673  -0.645   0.666  1.00  0.00    -0.332 OA
ATOM     74  C   UNL     1       4.095   0.015  -1.620  1.00  0.00     0.202 C 
ATOM     75  C   UNL     1       5.030  -0.981   0.903  1.00  0.00     0.262 C 
ATOM     76  C   UNL     1       5.604  -0.196  -1.422  1.00  0.00     0.180 C 
ATOM     77  C   UNL     1       5.968  -0.088   0.068  1.00  0.00     0.193 C 
BRANCH  74  78
ATOM     78  O   UNL     1       3.752  -0.277  -2.950  1.00  0.00    -0.385 OA
ATOM     79  H   UNL     1       3.891   0.556  -3.473  1.00  0.00     0.211 HD
ENDBRANCH  74  78
BRANCH  75  80
ATOM     80  C   UNL     1       5.323  -0.780   2.360  1.00  0.00     0.335 C 
ATOM     81  O   UNL     1       5.968  -1.653   3.004  1.00  0.00    -0.249 OA
BRANCH  80  82
ATOM     82  O   UNL     1       4.937   0.399   2.990  1.00  0.00    -0.479 OA
ATOM     83  H   UNL     1       5.137   0.557   3.972  1.00  0.00     0.296 HD
ENDBRANCH  80  82
ENDBRANCH  75  80
BRANCH  76  84
ATOM     84  O   UNL     1       6.326   0.772  -2.144  1.00  0.00    -0.387 OA
ATOM     85  H   UNL     1       6.342   0.474  -3.089  1.00  0.00     0.211 HD
ENDBRANCH  76  84
BRANCH  77  86
ATOM     86  O   UNL     1       7.301  -0.545   0.239  1.00  0.00    -0.341 OA
BRANCH  86  87
ATOM     87  C   UNL     1       8.186   0.518   0.527  1.00  0.00     0.271 C 
ATOM     88  O   UNL     1       8.122   0.796   1.918  1.00  0.00    -0.342 OA
ATOM     89  C   UNL     1       9.611   0.101   0.118  1.00  0.00     0.159 C 
ATOM     90  C   UNL     1       8.892   1.934   2.283  1.00  0.00     0.180 C 
ATOM     91  C   UNL     1      10.585   1.261   0.444  1.00  0.00     0.169 C 
ATOM     92  C   UNL     1      10.390   1.796   1.883  1.00  0.00     0.176 C 
BRANCH  89  93
ATOM     93  N   UNL     1       9.992  -1.160   0.801  1.00  0.00    -0.181 NA
ATOM     94  H   UNL     1      10.987  -1.117   1.119  1.00  0.00     0.144 HD
BRANCH  93  95
ATOM     95  S   UNL     1       9.939  -2.520  -0.289  1.00  0.00     0.333 S 
ATOM     96  O   UNL     1      10.384  -3.754   0.447  1.00  0.00    -0.182 OA
ATOM     97  O   UNL     1      10.870  -2.282  -1.447  1.00  0.00    -0.182 OA
BRANCH  95  98
ATOM     98  O   UNL     1       8.380  -2.760  -0.880  1.00  0.00    -0.273 OA
ATOM     99  H   UNL     1       7.894  -3.210  -0.142  1.00  0.00     0.235 HD
ENDBRANCH  95  98
ENDBRANCH  93  95
ENDBRANCH  89  93
BRANCH  90 100
ATOM    100  C   UNL     1       8.245   3.256   1.822  1.00  0.00     0.220 C 
BRANCH 100 101
ATOM    101  O   UNL     1       6.879   3.240   2.164  1.00  0.00    -0.245 OA
BRANCH 101 102
ATOM    102  S   UNL     1       6.132   4.591   1.470  1.00  0.00     0.397 S 
ATOM    103  O   UNL     1       4.760   4.744   2.062  1.00  0.00    -0.169 OA
ATOM    104  O   UNL     1       5.997   4.391  -0.016  1.00  0.00    -0.169 OA
BRANCH 102 105
ATOM    105  O   UNL     1       7.011   5.993   1.786  1.00  0.00    -0.264 OA
ATOM    106  H   UNL     1       7.641   6.082   1.028  1.00  0.00     0.236 HD
ENDBRANCH 102 105
ENDBRANCH 101 102
ENDBRANCH 100 101
ENDBRANCH  90 100
BRANCH  91 107
ATOM    107  O   UNL     1      10.386   2.317  -0.464  1.00  0.00    -0.388 OA
ATOM    108  H   UNL     1      10.809   2.045  -1.323  1.00  0.00     0.211 HD
ENDBRANCH  91 107
BRANCH  92 109
ATOM    109  O   UNL     1      11.089   0.987   2.801  1.00  0.00    -0.388 OA
ATOM    110  H   UNL     1      10.530   0.196   3.012  1.00  0.00     0.211 HD
ENDBRANCH  92 109
ENDBRANCH  86  87
ENDBRANCH  77  86
ENDBRANCH  71  72
ENDBRANCH   4  71
TORSDOF 46
