REMARK SMILES C[C@]12CC[C@H]3[C@@H](CCC4=CC(=O)CC[C@@]43C)[C@@H]1CC[C@@H]2O
REMARK SMILES IDX 17 1 18 2 19 3 20 4 2 5 1 6 3 7 4 8 5 9 6 10 7 11 8 12 9 13
REMARK SMILES IDX 10 14 11 15 12 16 13 17 14 18 15 19 16 20 21 21
REMARK H PARENT 21 22
REMARK Flexibility Score: inf
ROOT
ATOM      1  C   UNL     1      -1.720  -0.799   0.340  1.00  0.00     0.001 C 
ATOM      2  C   UNL     1      -2.738  -1.852  -0.079  1.00  0.00     0.007 C 
ATOM      3  C   UNL     1      -4.089  -1.263   0.365  1.00  0.00     0.032 C 
ATOM      4  C   UNL     1      -3.816   0.190   0.806  1.00  0.00     0.120 C 
ATOM      5  C   UNL     1      -2.454   0.537   0.168  1.00  0.00    -0.003 C 
ATOM      6  C   UNL     1      -2.666   0.958  -1.322  1.00  0.00     0.014 C 
ATOM      7  C   UNL     1      -1.648   1.617   0.919  1.00  0.00     0.010 C 
ATOM      8  C   UNL     1      -0.197   1.703   0.388  1.00  0.00     0.005 C 
ATOM      9  C   UNL     1       0.539   0.322   0.365  1.00  0.00     0.002 C 
ATOM     10  C   UNL     1      -0.322  -0.797  -0.314  1.00  0.00    -0.003 C 
ATOM     11  C   UNL     1       0.365  -2.161  -0.134  1.00  0.00     0.008 C 
ATOM     12  C   UNL     1       1.749  -2.161  -0.777  1.00  0.00     0.032 C 
ATOM     13  C   UNL     1       2.597  -1.029  -0.245  1.00  0.00    -0.060 C 
ATOM     14  C   UNL     1       3.902  -1.263  -0.009  1.00  0.00     0.047 C 
ATOM     15  C   UNL     1       4.829  -0.193   0.380  1.00  0.00     0.155 C 
ATOM     16  O   UNL     1       6.034  -0.470   0.620  1.00  0.00    -0.295 OA
ATOM     17  C   UNL     1       4.371   1.229   0.428  1.00  0.00     0.081 C 
ATOM     18  C   UNL     1       2.872   1.300   0.728  1.00  0.00     0.019 C 
ATOM     19  C   UNL     1       2.009   0.391  -0.207  1.00  0.00    -0.008 C 
ATOM     20  C   UNL     1       2.040   0.963  -1.647  1.00  0.00     0.016 C 
ENDROOT
BRANCH   4  21
ATOM     21  O   UNL     1      -4.851   1.043   0.390  1.00  0.00    -0.393 OA
ATOM     22  H   UNL     1      -4.704   1.909   0.852  1.00  0.00     0.210 HD
ENDBRANCH   4  21
TORSDOF 1
