REMARK SMILES Clc1ccc(C(c2ccccc2Cl)C(Cl)Cl)cc1
REMARK SMILES IDX 6 1 14 2 15 3 16 4 5 5 4 6 17 7 3 8 18 9 2 10 1 11 7 12 8 13
REMARK SMILES IDX 12 14 9 15 11 16 13 17 10 18
REMARK H PARENT
REMARK Flexibility Score: inf
ROOT
ATOM      1  C   UNL     1      -0.062  -0.988  -0.596  1.00  0.00     0.084 C 
ENDROOT
BRANCH   1   2
ATOM      2  C   UNL     1      -0.246  -2.468  -0.169  1.00  0.00     0.184 C 
ATOM      3  Cl  UNL     1      -0.398  -2.716   1.594  1.00  0.00    -0.104 Cl
ATOM      4  Cl  UNL     1       1.039  -3.520  -0.829  1.00  0.00    -0.104 Cl
ENDBRANCH   1   2
BRANCH   1   5
ATOM      5  C   UNL     1       1.260  -0.296  -0.263  1.00  0.00    -0.038 A 
ATOM      6  C   UNL     1       1.531   0.943  -0.877  1.00  0.00     0.006 A 
ATOM      7  C   UNL     1       2.225  -0.833   0.616  1.00  0.00     0.006 A 
ATOM      8  C   UNL     1       2.719   1.629  -0.613  1.00  0.00     0.021 A 
ATOM      9  C   UNL     1       3.413  -0.143   0.877  1.00  0.00     0.021 A 
ATOM     10  C   UNL     1       3.660   1.088   0.264  1.00  0.00     0.041 A 
ATOM     11  Cl  UNL     1       5.151   1.950   0.596  1.00  0.00    -0.084 Cl
ENDBRANCH   1   5
BRANCH   1  12
ATOM     12  C   UNL     1      -1.290  -0.153  -0.224  1.00  0.00    -0.019 A 
ATOM     13  C   UNL     1      -2.352  -0.105  -1.151  1.00  0.00     0.006 A 
ATOM     14  C   UNL     1      -1.446   0.532   1.015  1.00  0.00     0.044 A 
ATOM     15  C   UNL     1      -3.515   0.615  -0.877  1.00  0.00     0.000 A 
ATOM     16  C   UNL     1      -2.621   1.250   1.272  1.00  0.00     0.021 A 
ATOM     17  Cl  UNL     1      -0.228   0.540   2.287  1.00  0.00    -0.084 Cl
ATOM     18  C   UNL     1      -3.649   1.294   0.331  1.00  0.00     0.002 A 
ENDBRANCH   1  12
TORSDOF 3
