REMARK SMILES Nc1cccc2c1CN(C1CCC(=O)NC1=O)C2=O
REMARK SMILES IDX 2 1 3 2 4 3 5 4 6 5 7 6 8 7 9 8 18 9 19 10 1 11 10 14 11 15
REMARK SMILES IDX 16 16 12 17 15 18 17 19 13 20 14 22
REMARK H PARENT 1 12 1 13 15 21
REMARK Flexibility Score: inf
ROOT
ATOM      1  C   UNL     1       3.318  -0.667  -0.623  1.00  0.00     0.037 A 
ATOM      2  C   UNL     1       4.405   0.014  -0.040  1.00  0.00     0.026 A 
ATOM      3  C   UNL     1       4.185   1.061   0.878  1.00  0.00     0.003 A 
ATOM      4  C   UNL     1       2.878   1.439   1.223  1.00  0.00     0.014 A 
ATOM      5  C   UNL     1       1.820   0.751   0.634  1.00  0.00     0.047 A 
ATOM      6  C   UNL     1       2.020  -0.275  -0.266  1.00  0.00     0.007 A 
ATOM      7  C   UNL     1       0.705  -0.833  -0.741  1.00  0.00     0.159 C 
ATOM      8  N   UNL     1      -0.289  -0.028  -0.024  1.00  0.00    -0.322 N 
ATOM      9  C   UNL     1       0.398   0.918   0.794  1.00  0.00     0.255 C 
ATOM     10  O   UNL     1      -0.165   1.774   1.526  1.00  0.00    -0.269 OA
ENDROOT
BRANCH   1  11
ATOM     11  N   UNL     1       3.541  -1.729  -1.555  1.00  0.00    -0.398 N 
ATOM     12  H   UNL     1       2.744  -2.241  -1.993  1.00  0.00     0.156 HD
ATOM     13  H   UNL     1       4.512  -2.013  -1.814  1.00  0.00     0.156 HD
ENDBRANCH   1  11
BRANCH   8  14
ATOM     14  C   UNL     1      -1.741  -0.199  -0.144  1.00  0.00     0.176 C 
ATOM     15  C   UNL     1      -2.328  -0.701   1.187  1.00  0.00     0.045 C 
ATOM     16  C   UNL     1      -2.402   1.087  -0.578  1.00  0.00     0.249 C 
ATOM     17  C   UNL     1      -3.855  -0.807   1.118  1.00  0.00     0.103 C 
ATOM     18  N   UNL     1      -3.731   1.398  -0.145  1.00  0.00    -0.295 N 
ATOM     19  O   UNL     1      -1.812   1.861  -1.380  1.00  0.00    -0.272 OA
ATOM     20  C   UNL     1      -4.456   0.506   0.709  1.00  0.00     0.226 C 
ATOM     21  H   UNL     1      -4.178   2.290  -0.455  1.00  0.00     0.172 HD
ATOM     22  O   UNL     1      -5.623   0.803   1.079  1.00  0.00    -0.275 OA
ENDBRANCH   8  14
TORSDOF 2
