REMARK SMILES CCC(=O)OCC(=O)[C@@]1(OC(=O)CC)[C@@H](C)C[C@H]2[C@@H]3CCC4=CC(=O)C=C[C@]4(C)[C@@]3(Cl)[C@@H](O)C[C@@]21C
REMARK SMILES IDX 7 1 8 2 9 3 18 4 17 5 35 6 19 7 15 8 36 9 34 10 30 11 20 12
REMARK SMILES IDX 16 13 32 14 31 15 28 16 21 17 22 18 27 19 29 20 23 21 26 22
REMARK SMILES IDX 24 23 25 24 10 25 11 26 12 27 13 28 14 29 33 30 6 32 5 33
REMARK SMILES IDX 3 34 4 35 2 36 1 37
REMARK H PARENT 33 31
REMARK Flexibility Score: inf
ROOT
ATOM      1  C   UNL     1       2.580   1.192  -1.208  1.00  0.00     0.214 C 
ATOM      2  O   UNL     1       3.471   2.026  -1.130  1.00  0.00    -0.291 OA
ENDROOT
BRANCH   1   3
ATOM      3  C   UNL     1       1.293   1.429  -0.393  1.00  0.00     0.181 C 
ATOM      4  C   UNL     1      -1.058   1.397  -0.037  1.00  0.00     0.005 C 
ATOM      5  C   UNL     1      -0.850   2.760  -0.654  1.00  0.00     0.012 C 
ATOM      6  C   UNL     1       0.031   0.514  -0.682  1.00  0.00     0.021 C 
ATOM      7  C   UNL     1      -2.416   0.672   0.009  1.00  0.00     0.018 C 
ATOM      8  C   UNL     1       0.696   2.894  -0.620  1.00  0.00     0.039 C 
ATOM      9  C   UNL     1      -0.185   0.358  -2.237  1.00  0.00     0.016 C 
ATOM     10  C   UNL     1      -0.054  -0.925  -0.043  1.00  0.00     0.045 C 
ATOM     11  C   UNL     1      -2.381  -0.384   1.178  1.00  0.00     0.086 C 
ATOM     12  C   UNL     1      -3.644   1.584   0.080  1.00  0.00     0.010 C 
ATOM     13  C   UNL     1       1.203   3.710  -1.828  1.00  0.00     0.012 C 
ATOM     14  C   UNL     1      -0.928  -1.066   1.240  1.00  0.00     0.137 C 
ATOM     15  Cl  UNL     1      -2.560   0.496   2.762  1.00  0.00    -0.115 Cl
ATOM     16  C   UNL     1      -3.652  -1.336   1.059  1.00  0.00     0.029 C 
ATOM     17  C   UNL     1      -4.913   0.737  -0.065  1.00  0.00     0.032 C 
ATOM     18  C   UNL     1      -4.925  -0.464   0.864  1.00  0.00    -0.055 C 
ATOM     19  C   UNL     1      -3.802  -2.214   2.314  1.00  0.00    -0.010 C 
ATOM     20  C   UNL     1      -3.562  -2.300  -0.151  1.00  0.00     0.022 C 
ATOM     21  C   UNL     1      -6.118  -0.868   1.337  1.00  0.00     0.052 C 
ATOM     22  C   UNL     1      -4.991  -2.584   2.796  1.00  0.00     0.048 C 
ATOM     23  C   UNL     1      -6.215  -2.001   2.258  1.00  0.00     0.178 C 
ATOM     24  O   UNL     1      -7.340  -2.428   2.625  1.00  0.00    -0.290 OA
BRANCH   3  25
ATOM     25  O   UNL     1       1.624   1.356   1.011  1.00  0.00    -0.450 OA
BRANCH  25  26
ATOM     26  C   UNL     1       2.421   0.400   1.663  1.00  0.00     0.306 C 
ATOM     27  O   UNL     1       3.101  -0.443   1.020  1.00  0.00    -0.252 OA
BRANCH  26  28
ATOM     28  C   UNL     1       2.504   0.426   3.154  1.00  0.00     0.119 C 
ATOM     29  C   UNL     1       3.629   1.346   3.614  1.00  0.00     0.016 C 
ENDBRANCH  26  28
ENDBRANCH  25  26
ENDBRANCH   3  25
BRANCH  14  30
ATOM     30  O   UNL     1      -0.989  -2.422   1.594  1.00  0.00    -0.391 OA
ATOM     31  H   UNL     1      -0.095  -2.679   1.943  1.00  0.00     0.211 HD
ENDBRANCH  14  30
ENDBRANCH   1   3
BRANCH   1  32
ATOM     32  C   UNL     1       2.865  -0.051  -2.011  1.00  0.00     0.312 C 
BRANCH  32  33
ATOM     33  O   UNL     1       4.256  -0.353  -1.952  1.00  0.00    -0.457 OA
BRANCH  33  34
ATOM     34  C   UNL     1       4.802  -1.518  -2.499  1.00  0.00     0.305 C 
ATOM     35  O   UNL     1       4.060  -2.395  -3.021  1.00  0.00    -0.252 OA
BRANCH  34  36
ATOM     36  C   UNL     1       6.278  -1.746  -2.413  1.00  0.00     0.119 C 
ATOM     37  C   UNL     1       6.670  -2.175  -1.005  1.00  0.00     0.016 C 
ENDBRANCH  34  36
ENDBRANCH  33  34
ENDBRANCH  32  33
ENDBRANCH   1  32
TORSDOF 9
