REMARK SMILES CCOC(=O)[C@H](CCc1ccccc1)N[C@@H](C)C(=O)N1CCC[C@H]1C(=O)O
REMARK SMILES IDX 16 1 17 2 15 3 6 5 4 6 5 7 3 8 2 9 1 10 7 11 8 12 9 13 10 14
REMARK SMILES IDX 14 15 11 16 13 17 12 18 18 19 19 20 20 21 21 22 24 23 22 24
REMARK SMILES IDX 23 25 25 26 26 27 27 28
REMARK H PARENT 15 4 27 29
REMARK Flexibility Score: inf
ROOT
ATOM      1  C   UNL     1       1.484   0.601  -0.619  1.00  0.00     0.141 C 
ATOM      2  C   UNL     1       2.072   1.199  -1.902  1.00  0.00     0.035 C 
ENDROOT
BRANCH   1   3
ATOM      3  N   UNL     1       0.425   1.480  -0.080  1.00  0.00    -0.293 NA
ATOM      4  H   UNL     1       0.307   1.315   0.948  1.00  0.00     0.124 HD
BRANCH   3   5
ATOM      5  C   UNL     1      -0.880   1.299  -0.746  1.00  0.00     0.165 C 
BRANCH   5   6
ATOM      6  C   UNL     1      -1.628   2.601  -0.673  1.00  0.00     0.323 C 
ATOM      7  O   UNL     1      -1.602   3.389  -1.658  1.00  0.00    -0.250 OA
BRANCH   6   8
ATOM      8  O   UNL     1      -2.336   2.937   0.491  1.00  0.00    -0.465 OA
BRANCH   8   9
ATOM      9  C   UNL     1      -3.004   4.183   0.674  1.00  0.00     0.229 C 
ATOM     10  C   UNL     1      -2.003   5.289   0.983  1.00  0.00     0.049 C 
ENDBRANCH   8   9
ENDBRANCH   6   8
ENDBRANCH   5   6
BRANCH   5  11
ATOM     11  C   UNL     1      -1.691   0.144  -0.107  1.00  0.00     0.036 C 
BRANCH  11  12
ATOM     12  C   UNL     1      -2.984  -0.151  -0.881  1.00  0.00     0.038 C 
BRANCH  12  13
ATOM     13  C   UNL     1      -3.719  -1.312  -0.267  1.00  0.00    -0.048 A 
ATOM     14  C   UNL     1      -4.650  -1.096   0.764  1.00  0.00     0.004 A 
ATOM     15  C   UNL     1      -3.444  -2.627  -0.682  1.00  0.00     0.004 A 
ATOM     16  C   UNL     1      -5.311  -2.179   1.353  1.00  0.00     0.000 A 
ATOM     17  C   UNL     1      -4.117  -3.705  -0.098  1.00  0.00     0.000 A 
ATOM     18  C   UNL     1      -5.048  -3.482   0.918  1.00  0.00     0.000 A 
ENDBRANCH  12  13
ENDBRANCH  11  12
ENDBRANCH   5  11
ENDBRANCH   3   5
ENDBRANCH   1   3
BRANCH   1  19
ATOM     19  C   UNL     1       2.605   0.449   0.386  1.00  0.00     0.240 C 
ATOM     20  O   UNL     1       3.011   1.474   1.000  1.00  0.00    -0.273 OA
BRANCH  19  21
ATOM     21  N   UNL     1       3.276  -0.808   0.594  1.00  0.00    -0.328 N 
ATOM     22  C   UNL     1       2.808  -2.086   0.079  1.00  0.00     0.120 C 
ATOM     23  C   UNL     1       4.492  -0.937   1.386  1.00  0.00     0.195 C 
ATOM     24  C   UNL     1       3.850  -3.114   0.501  1.00  0.00     0.024 C 
ATOM     25  C   UNL     1       4.695  -2.440   1.578  1.00  0.00     0.039 C 
BRANCH  23  26
ATOM     26  C   UNL     1       5.651  -0.319   0.655  1.00  0.00     0.326 C 
ATOM     27  O   UNL     1       6.445   0.446   1.265  1.00  0.00    -0.250 OA
BRANCH  26  28
ATOM     28  O   UNL     1       5.853  -0.596  -0.693  1.00  0.00    -0.480 OA
ATOM     29  H   UNL     1       6.627  -0.179  -1.200  1.00  0.00     0.296 HD
ENDBRANCH  26  28
ENDBRANCH  23  26
ENDBRANCH  19  21
ENDBRANCH   1  19
TORSDOF 12
