REMARK SMILES CN1CCc2cccc3c2[C@H]1Cc1ccc(O)c(O)c1-3
REMARK SMILES IDX 11 1 12 2 13 3 20 4 18 5 16 6 15 7 14 8 9 9 8 10 7 11 6 12
REMARK SMILES IDX 5 13 4 14 3 15 2 16 1 17 10 18 19 19 17 21
REMARK H PARENT 19 20 17 22
REMARK Flexibility Score: inf
ROOT
ATOM      1  C   UNL     1      -1.065   0.734  -0.121  1.00  0.00     0.092 C 
ATOM      2  C   UNL     1      -0.173   1.051  -1.345  1.00  0.00     0.060 C 
ATOM      3  C   UNL     1       1.285   0.848  -1.009  1.00  0.00    -0.034 A 
ATOM      4  C   UNL     1       1.672  -0.190  -0.133  1.00  0.00     0.031 A 
ATOM      5  C   UNL     1       3.028  -0.274   0.273  1.00  0.00     0.165 A 
ATOM      6  C   UNL     1       3.987   0.580  -0.304  1.00  0.00     0.158 A 
ATOM      7  C   UNL     1       3.596   1.540  -1.241  1.00  0.00     0.050 A 
ATOM      8  C   UNL     1       2.254   1.684  -1.581  1.00  0.00     0.008 A 
ATOM      9  C   UNL     1       0.609  -1.115   0.369  1.00  0.00    -0.009 A 
ATOM     10  C   UNL     1       0.892  -2.445   0.736  1.00  0.00     0.009 A 
ATOM     11  C   UNL     1      -0.124  -3.290   1.181  1.00  0.00     0.001 A 
ATOM     12  C   UNL     1      -1.439  -2.837   1.236  1.00  0.00     0.004 A 
ATOM     13  C   UNL     1      -1.757  -1.536   0.828  1.00  0.00    -0.041 A 
ATOM     14  C   UNL     1      -3.199  -1.117   0.795  1.00  0.00     0.051 C 
ATOM     15  C   UNL     1      -3.338   0.395   0.670  1.00  0.00     0.089 C 
ATOM     16  N   UNL     1      -2.511   0.882  -0.452  1.00  0.00    -0.299 NA
ATOM     17  C   UNL     1      -2.864   2.290  -0.727  1.00  0.00     0.106 C 
ATOM     18  C   UNL     1      -0.739  -0.678   0.358  1.00  0.00    -0.019 A 
ENDROOT
BRANCH   5  19
ATOM     19  O   UNL     1       3.415  -1.168   1.272  1.00  0.00    -0.504 OA
ATOM     20  H   UNL     1       4.372  -1.243   1.596  1.00  0.00     0.293 HD
ENDBRANCH   5  19
BRANCH   6  21
ATOM     21  O   UNL     1       5.328   0.475   0.065  1.00  0.00    -0.504 OA
ATOM     22  H   UNL     1       6.037   1.079  -0.332  1.00  0.00     0.293 HD
ENDBRANCH   6  21
TORSDOF 2
