REMARK SMILES CCN(Cc1ccncc1)C(=O)C(CO)c1ccccc1
REMARK SMILES IDX 11 1 12 2 3 3 2 4 1 5 4 6 5 7 6 8 10 9 7 10 9 11 8 12 13 13
REMARK SMILES IDX 14 14 15 15 16 17 17 18 21 19 18 20 20 21 19 22
REMARK H PARENT 15 16
REMARK Flexibility Score: inf
ROOT
ATOM      1  C   UNL     1      -0.117  -0.203   0.779  1.00  0.00     0.232 C 
ATOM      2  O   UNL     1      -0.243  -0.657   1.950  1.00  0.00    -0.274 OA
ENDROOT
BRANCH   1   3
ATOM      3  N   UNL     1      -0.914   0.928   0.372  1.00  0.00    -0.338 N 
BRANCH   3   4
ATOM      4  C   UNL     1      -0.342   2.007  -0.446  1.00  0.00     0.116 C 
ATOM      5  C   UNL     1       0.559   2.898   0.402  1.00  0.00     0.027 C 
ENDBRANCH   3   4
BRANCH   3   6
ATOM      6  C   UNL     1      -2.311   1.010   0.817  1.00  0.00     0.155 C 
BRANCH   6   7
ATOM      7  C   UNL     1      -3.139  -0.015   0.091  1.00  0.00    -0.026 A 
ATOM      8  C   UNL     1      -3.579   0.234  -1.217  1.00  0.00     0.025 A 
ATOM      9  C   UNL     1      -3.416  -1.256   0.681  1.00  0.00     0.025 A 
ATOM     10  C   UNL     1      -4.302  -0.748  -1.898  1.00  0.00     0.111 A 
ATOM     11  C   UNL     1      -4.142  -2.211  -0.036  1.00  0.00     0.111 A 
ATOM     12  N   UNL     1      -4.566  -1.939  -1.298  1.00  0.00    -0.265 NA
ENDBRANCH   6   7
ENDBRANCH   3   6
ENDBRANCH   1   3
BRANCH   1  13
ATOM     13  C   UNL     1       0.856  -0.863  -0.176  1.00  0.00     0.134 C 
BRANCH  13  14
ATOM     14  C   UNL     1       0.875  -2.392  -0.012  1.00  0.00     0.174 C 
BRANCH  14  15
ATOM     15  O   UNL     1      -0.400  -2.915  -0.270  1.00  0.00    -0.395 OA
ATOM     16  H   UNL     1      -0.327  -3.896  -0.141  1.00  0.00     0.210 HD
ENDBRANCH  14  15
ENDBRANCH  13  14
BRANCH  13  17
ATOM     17  C   UNL     1       2.248  -0.287  -0.013  1.00  0.00    -0.033 A 
ATOM     18  C   UNL     1       2.913  -0.335   1.228  1.00  0.00     0.004 A 
ATOM     19  C   UNL     1       2.902   0.300  -1.112  1.00  0.00     0.004 A 
ATOM     20  C   UNL     1       4.195   0.207   1.366  1.00  0.00     0.000 A 
ATOM     21  C   UNL     1       4.183   0.840  -0.969  1.00  0.00     0.000 A 
ATOM     22  C   UNL     1       4.828   0.795   0.269  1.00  0.00     0.000 A 
ENDBRANCH  13  17
ENDBRANCH   1  13
TORSDOF 8
