REMARK SMILES COc1cc(C(=O)NS(=O)(=O)c2ccccc2C)ccc1Cc1cn(C)c2ccc(NC(=O)OC3CCCC3)cc12
REMARK SMILES IDX 22 1 21 2 3 3 4 4 5 5 20 6 19 7 2 8 1 9 6 10 7 11 8 12 9 14
REMARK SMILES IDX 10 15 11 16 12 17 13 18 17 19 14 20 16 21 18 22 15 23 23 24
REMARK SMILES IDX 24 25 41 26 25 27 27 28 40 29 26 30 28 31 30 32 29 33 31 34
REMARK SMILES IDX 32 35 33 37 34 38 35 39 36 40 39 41 37 42 38 43
REMARK H PARENT 8 13 31 36
REMARK Flexibility Score: inf
ROOT
ATOM      1  C   UNL     1      -0.067   1.250   0.907  1.00  0.00     0.077 C 
ENDROOT
BRANCH   1   2
ATOM      2  C   UNL     1      -1.494   0.874   0.589  1.00  0.00    -0.001 A 
ATOM      3  C   UNL     1      -1.826  -0.450   0.240  1.00  0.00     0.123 A 
ATOM      4  C   UNL     1      -3.158  -0.764  -0.097  1.00  0.00     0.060 A 
ATOM      5  C   UNL     1      -4.157   0.227  -0.088  1.00  0.00     0.044 A 
ATOM      6  C   UNL     1      -2.489   1.862   0.584  1.00  0.00     0.009 A 
ATOM      7  C   UNL     1      -3.805   1.543   0.249  1.00  0.00     0.014 A 
BRANCH   3   8
ATOM      8  O   UNL     1      -0.810  -1.420   0.228  1.00  0.00    -0.496 OA
ATOM      9  C   UNL     1      -1.001  -2.792  -0.104  1.00  0.00     0.278 C 
ENDBRANCH   3   8
BRANCH   5  10
ATOM     10  C   UNL     1      -5.555  -0.090  -0.467  1.00  0.00     0.265 C 
ATOM     11  O   UNL     1      -6.306   0.832  -0.887  1.00  0.00    -0.268 OA
ATOM     12  N   UNL     1      -6.074  -1.421  -0.344  1.00  0.00    -0.245 N 
ATOM     13  H   UNL     1      -5.554  -2.145   0.199  1.00  0.00     0.183 HD
BRANCH  12  14
ATOM     14  S   UNL     1      -7.621  -1.855  -0.990  1.00  0.00     0.264 S 
ATOM     15  O   UNL     1      -7.884  -3.306  -0.699  1.00  0.00    -0.201 OA
ATOM     16  O   UNL     1      -7.591  -1.678  -2.481  1.00  0.00    -0.201 OA
BRANCH  14  17
ATOM     17  C   UNL     1      -8.877  -0.891  -0.189  1.00  0.00     0.090 A 
ATOM     18  C   UNL     1      -9.023  -1.073   1.195  1.00  0.00     0.022 A 
ATOM     19  C   UNL     1      -9.712   0.046  -0.857  1.00  0.00    -0.031 A 
ATOM     20  C   UNL     1      -9.979  -0.355   1.915  1.00  0.00     0.001 A 
ATOM     21  C   UNL     1     -10.673   0.756  -0.113  1.00  0.00     0.005 A 
ATOM     22  C   UNL     1      -9.610   0.311  -2.334  1.00  0.00     0.046 C 
ATOM     23  C   UNL     1     -10.805   0.555   1.261  1.00  0.00     0.000 A 
ENDBRANCH  14  17
ENDBRANCH  12  14
ENDBRANCH   5  10
ENDBRANCH   1   2
BRANCH   1  24
ATOM     24  C   UNL     1       0.781   1.283  -0.334  1.00  0.00    -0.018 A 
ATOM     25  C   UNL     1       0.396   1.717  -1.602  1.00  0.00     0.090 A 
ATOM     26  C   UNL     1       2.141   1.042  -0.421  1.00  0.00     0.005 A 
ATOM     27  N   UNL     1       1.454   1.702  -2.444  1.00  0.00    -0.350 N 
ATOM     28  C   UNL     1       2.515   1.302  -1.715  1.00  0.00     0.048 A 
ATOM     29  C   UNL     1       3.069   0.664   0.549  1.00  0.00     0.036 A 
ATOM     30  C   UNL     1       1.455   2.154  -3.832  1.00  0.00     0.149 C 
ATOM     31  C   UNL     1       3.847   1.203  -2.122  1.00  0.00     0.029 A 
ATOM     32  C   UNL     1       4.422   0.529   0.169  1.00  0.00     0.045 A 
ATOM     33  C   UNL     1       4.804   0.817  -1.169  1.00  0.00     0.028 A 
BRANCH  32  34
ATOM     34  N   UNL     1       5.396   0.181   1.168  1.00  0.00    -0.291 N 
ATOM     35  C   UNL     1       6.621  -0.515   0.902  1.00  0.00     0.411 C 
ATOM     36  H   UNL     1       5.188   0.414   2.165  1.00  0.00     0.173 HD
ATOM     37  O   UNL     1       6.782  -1.138  -0.184  1.00  0.00    -0.224 OA
BRANCH  35  38
ATOM     38  O   UNL     1       7.617  -0.534   1.883  1.00  0.00    -0.446 OA
BRANCH  38  39
ATOM     39  C   UNL     1       8.895  -1.143   1.690  1.00  0.00     0.178 C 
ATOM     40  C   UNL     1       9.670  -1.172   2.996  1.00  0.00     0.045 C 
ATOM     41  C   UNL     1       9.762  -0.331   0.736  1.00  0.00     0.045 C 
ATOM     42  C   UNL     1      11.139  -1.124   2.604  1.00  0.00     0.004 C 
ATOM     43  C   UNL     1      11.201  -0.549   1.190  1.00  0.00     0.004 C 
ENDBRANCH  38  39
ENDBRANCH  35  38
ENDBRANCH  32  34
ENDBRANCH   1  24
TORSDOF 9
