REMARK SMILES Cc1nnc2n1-c1ccc(Cl)cc1C(c1ccccc1Cl)=NC2
REMARK SMILES IDX 1 1 2 2 3 3 4 4 5 5 23 6 22 7 14 8 13 9 7 10 8 11 9 12 10 13
REMARK SMILES IDX 11 14 12 15 6 16 15 17 16 18 20 19 17 20 19 21 21 22 18 23
REMARK H PARENT
REMARK Flexibility Score: inf
ROOT
ATOM      1  C   UNL     1       3.788  -0.903   1.454  1.00  0.00     0.090 C 
ATOM      2  C   UNL     1       2.969  -1.623   0.430  1.00  0.00     0.134 A 
ATOM      3  N   UNL     1       3.088  -2.945   0.192  1.00  0.00    -0.135 NA
ATOM      4  N   UNL     1       2.186  -3.259  -0.728  1.00  0.00    -0.133 NA
ATOM      5  C   UNL     1       1.543  -2.119  -1.043  1.00  0.00     0.159 A 
ATOM      6  C   UNL     1       0.377  -2.030  -1.964  1.00  0.00     0.220 C 
ATOM      7  N   UNL     1      -0.786  -1.587  -1.205  1.00  0.00    -0.276 NA
ATOM      8  C   UNL     1      -0.899  -0.453  -0.569  1.00  0.00     0.076 C 
ATOM      9  C   UNL     1       0.171   0.596  -0.595  1.00  0.00     0.026 A 
ATOM     10  C   UNL     1       1.552   0.291  -0.443  1.00  0.00     0.058 A 
ATOM     11  C   UNL     1       2.493   1.335  -0.458  1.00  0.00     0.029 A 
ATOM     12  C   UNL     1       2.084   2.663  -0.581  1.00  0.00     0.023 A 
ATOM     13  C   UNL     1       0.731   2.968  -0.708  1.00  0.00     0.041 A 
ATOM     14  Cl  UNL     1       0.220   4.639  -0.866  1.00  0.00    -0.084 Cl
ATOM     15  C   UNL     1      -0.218   1.944  -0.719  1.00  0.00     0.033 A 
ATOM     16  N   UNL     1       2.006  -1.072  -0.341  1.00  0.00    -0.281 N 
ENDROOT
BRANCH   8  17
ATOM     17  C   UNL     1      -2.175  -0.183   0.133  1.00  0.00     0.019 A 
ATOM     18  C   UNL     1      -3.387  -0.375  -0.554  1.00  0.00     0.012 A 
ATOM     19  C   UNL     1      -2.209   0.256   1.477  1.00  0.00     0.050 A 
ATOM     20  C   UNL     1      -4.607  -0.111   0.072  1.00  0.00     0.001 A 
ATOM     21  C   UNL     1      -3.438   0.517   2.094  1.00  0.00     0.021 A 
ATOM     22  Cl  UNL     1      -0.744   0.427   2.441  1.00  0.00    -0.084 Cl
ATOM     23  C   UNL     1      -4.633   0.338   1.393  1.00  0.00     0.002 A 
ENDBRANCH   8  17
TORSDOF 1
