REMARK SMILES CC(C)(C)NC[C@H](O)COc1nsnc1N1CCOCC1
REMARK SMILES IDX 9 1 7 2 8 3 6 5 5 6 2 8 1 9 3 10 4 11 10 12 11 13 12 14
REMARK SMILES IDX 15 15 13 16 14 17 16 18 17 19 21 20 18 21 20 22 19 23
REMARK H PARENT 8 4 5 7
REMARK Flexibility Score: inf
ROOT
ATOM      1  C   UNL     1      -0.066   1.280   0.677  1.00  0.00     0.264 C 
ENDROOT
BRANCH   1   2
ATOM      2  C   UNL     1      -0.944   0.320  -0.145  1.00  0.00     0.166 C 
BRANCH   2   3
ATOM      3  O   UNL     1      -0.464  -0.998  -0.044  1.00  0.00    -0.388 OA
ATOM      4  H   UNL     1      -0.525  -1.268   0.910  1.00  0.00     0.211 HD
ENDBRANCH   2   3
BRANCH   2   5
ATOM      5  C   UNL     1      -2.415   0.400   0.296  1.00  0.00     0.116 C 
BRANCH   5   6
ATOM      6  N   UNL     1      -3.232  -0.503  -0.533  1.00  0.00    -0.309 NA
ATOM      7  H   UNL     1      -3.323  -0.058  -1.478  1.00  0.00     0.123 HD
BRANCH   6   8
ATOM      8  C   UNL     1      -4.587  -0.799  -0.002  1.00  0.00     0.010 C 
ATOM      9  C   UNL     1      -5.363  -1.580  -1.084  1.00  0.00     0.027 C 
ATOM     10  C   UNL     1      -5.372   0.491   0.329  1.00  0.00     0.027 C 
ATOM     11  C   UNL     1      -4.492  -1.698   1.251  1.00  0.00     0.027 C 
ENDBRANCH   6   8
ENDBRANCH   5   6
ENDBRANCH   2   5
ENDBRANCH   1   2
BRANCH   1  12
ATOM     12  O   UNL     1       1.304   1.154   0.301  1.00  0.00    -0.472 OA
BRANCH  12  13
ATOM     13  C   UNL     1       1.834   1.683  -0.881  1.00  0.00     0.270 A 
ATOM     14  N   UNL     1       1.093   2.474  -1.703  1.00  0.00    -0.133 NA
ATOM     15  C   UNL     1       3.188   1.450  -1.277  1.00  0.00     0.207 A 
ATOM     16  S   UNL     1       2.199   2.840  -2.870  1.00  0.00     0.074 S 
ATOM     17  N   UNL     1       3.583   2.063  -2.424  1.00  0.00    -0.151 NA
BRANCH  15  18
ATOM     18  N   UNL     1       4.108   0.628  -0.530  1.00  0.00    -0.347 N 
ATOM     19  C   UNL     1       5.489   1.083  -0.337  1.00  0.00     0.147 C 
ATOM     20  C   UNL     1       3.641  -0.517   0.260  1.00  0.00     0.147 C 
ATOM     21  C   UNL     1       6.429  -0.122  -0.229  1.00  0.00     0.181 C 
ATOM     22  C   UNL     1       4.730  -1.592   0.317  1.00  0.00     0.181 C 
ATOM     23  O   UNL     1       5.961  -1.040   0.741  1.00  0.00    -0.378 OA
ENDBRANCH  15  18
ENDBRANCH  12  13
ENDBRANCH   1  12
TORSDOF 8
