REMARK SMILES CC(N)C(O)c1ccccc1
REMARK SMILES IDX 1 1 2 2 3 3 4 6 5 7 6 9 7 10 11 11 8 12 10 13 9 14
REMARK H PARENT 3 4 3 5 5 8
REMARK Flexibility Score: inf
ROOT
ATOM      1  C   UNL     1      -1.638   1.130   1.212  1.00  0.00     0.027 C 
ATOM      2  C   UNL     1      -1.751  -0.267   0.587  1.00  0.00     0.081 C 
ENDROOT
BRANCH   2   3
ATOM      3  N   UNL     1      -3.165  -0.562   0.338  1.00  0.00    -0.325 NA
ATOM      4  H   UNL     1      -3.264  -1.570   0.079  1.00  0.00     0.119 HD
ATOM      5  H   UNL     1      -3.505   0.009  -0.470  1.00  0.00     0.119 HD
ENDBRANCH   2   3
BRANCH   2   6
ATOM      6  C   UNL     1      -0.917  -0.384  -0.717  1.00  0.00     0.161 C 
BRANCH   6   7
ATOM      7  O   UNL     1      -1.103  -1.657  -1.281  1.00  0.00    -0.387 OA
ATOM      8  H   UNL     1      -0.772  -1.608  -2.216  1.00  0.00     0.211 HD
ENDBRANCH   6   7
BRANCH   6   9
ATOM      9  C   UNL     1       0.559  -0.160  -0.452  1.00  0.00    -0.018 A 
ATOM     10  C   UNL     1       1.317  -1.125   0.235  1.00  0.00     0.006 A 
ATOM     11  C   UNL     1       1.180   1.032  -0.866  1.00  0.00     0.006 A 
ATOM     12  C   UNL     1       2.673  -0.904   0.495  1.00  0.00     0.000 A 
ATOM     13  C   UNL     1       2.537   1.249  -0.604  1.00  0.00     0.000 A 
ATOM     14  C   UNL     1       3.282   0.281   0.075  1.00  0.00     0.000 A 
ENDBRANCH   6   9
ENDBRANCH   2   6
TORSDOF 4
