REMARK SMILES c1ccc(CC2=NCCN2)cc1
REMARK SMILES IDX 5 1 6 2 7 3 10 4 8 5 9 6 4 8 3 9 11 10 2 11 12 12 1 13
REMARK H PARENT 10 7
REMARK Flexibility Score: inf
ROOT
ATOM      1  C   UNL     1       0.044  -0.941  -1.282  1.00  0.00     0.110 C 
ENDROOT
BRANCH   1   2
ATOM      2  C   UNL     1       1.301  -0.402  -0.678  1.00  0.00     0.101 C 
ATOM      3  N   UNL     1       1.874   0.670  -1.103  1.00  0.00    -0.271 NA
ATOM      4  N   UNL     1       1.911  -0.962   0.467  1.00  0.00    -0.372 N 
ATOM      5  C   UNL     1       3.033   0.968  -0.268  1.00  0.00     0.165 C 
ATOM      6  C   UNL     1       3.045  -0.129   0.808  1.00  0.00     0.137 C 
ATOM      7  H   UNL     1       1.586  -1.806   0.989  1.00  0.00     0.161 HD
ENDBRANCH   1   2
BRANCH   1   8
ATOM      8  C   UNL     1      -1.152  -0.380  -0.564  1.00  0.00    -0.041 A 
ATOM      9  C   UNL     1      -1.675  -1.036   0.563  1.00  0.00     0.004 A 
ATOM     10  C   UNL     1      -1.721   0.837  -0.978  1.00  0.00     0.004 A 
ATOM     11  C   UNL     1      -2.765  -0.494   1.251  1.00  0.00     0.000 A 
ATOM     12  C   UNL     1      -2.812   1.375  -0.287  1.00  0.00     0.000 A 
ATOM     13  C   UNL     1      -3.335   0.709   0.825  1.00  0.00     0.000 A 
ENDBRANCH   1   8
TORSDOF 2
