REMARK SMILES CC(C)(C)c1ccc(CN2CCN(C(c3ccccc3)c3ccc(Cl)cc3)CC2)cc1
REMARK SMILES IDX 10 1 11 2 12 3 13 4 28 5 29 6 9 7 8 8 5 9 6 10 31 11 7 12
REMARK SMILES IDX 30 13 2 14 1 15 3 16 4 17 14 18 15 19 16 20 20 21 17 22
REMARK SMILES IDX 19 23 18 24 21 25 22 26 27 27 23 28 26 29 24 30 25 31
REMARK H PARENT
REMARK Flexibility Score: inf
ROOT
ATOM      1  N   UNL     1       0.318  -0.183   1.234  1.00  0.00    -0.297 NA
ATOM      2  C   UNL     1      -0.150  -0.356  -0.158  1.00  0.00     0.100 C 
ATOM      3  C   UNL     1      -1.181   0.710  -0.580  1.00  0.00     0.101 C 
ATOM      4  N   UNL     1      -2.325   0.806   0.359  1.00  0.00    -0.290 NA
ATOM      5  C   UNL     1      -1.818   1.020   1.736  1.00  0.00     0.101 C 
ATOM      6  C   UNL     1      -0.817  -0.066   2.170  1.00  0.00     0.100 C 
ENDROOT
BRANCH   1   7
ATOM      7  C   UNL     1       1.296   0.917   1.390  1.00  0.00     0.120 C 
BRANCH   7   8
ATOM      8  C   UNL     1       2.628   0.528   0.805  1.00  0.00    -0.034 A 
ATOM      9  C   UNL     1       5.124  -0.237  -0.305  1.00  0.00    -0.043 A 
ATOM     10  C   UNL     1       4.609  -0.872   0.847  1.00  0.00     0.004 A 
ATOM     11  C   UNL     1       4.349   0.793  -0.890  1.00  0.00     0.004 A 
ATOM     12  C   UNL     1       3.380  -0.495   1.392  1.00  0.00     0.005 A 
ATOM     13  C   UNL     1       3.119   1.166  -0.341  1.00  0.00     0.005 A 
BRANCH   9  14
ATOM     14  C   UNL     1       6.486  -0.684  -0.877  1.00  0.00    -0.013 C 
ATOM     15  C   UNL     1       6.911   0.119  -2.130  1.00  0.00     0.016 C 
ATOM     16  C   UNL     1       7.582  -0.495   0.194  1.00  0.00     0.016 C 
ATOM     17  C   UNL     1       6.411  -2.173  -1.277  1.00  0.00     0.016 C 
ENDBRANCH   9  14
ENDBRANCH   7   8
ENDBRANCH   1   7
BRANCH   4  18
ATOM     18  C   UNL     1      -3.291  -0.328   0.240  1.00  0.00     0.117 C 
BRANCH  18  19
ATOM     19  C   UNL     1      -3.853  -0.459  -1.167  1.00  0.00    -0.026 A 
ATOM     20  C   UNL     1      -4.030  -1.735  -1.733  1.00  0.00     0.006 A 
ATOM     21  C   UNL     1      -4.262   0.674  -1.898  1.00  0.00     0.006 A 
ATOM     22  C   UNL     1      -4.580  -1.872  -3.011  1.00  0.00     0.000 A 
ATOM     23  C   UNL     1      -4.810   0.531  -3.176  1.00  0.00     0.000 A 
ATOM     24  C   UNL     1      -4.968  -0.741  -3.733  1.00  0.00     0.000 A 
ENDBRANCH  18  19
BRANCH  18  25
ATOM     25  C   UNL     1      -4.471  -0.182   1.189  1.00  0.00    -0.026 A 
ATOM     26  C   UNL     1      -5.147   1.046   1.327  1.00  0.00     0.007 A 
ATOM     27  C   UNL     1      -4.938  -1.300   1.903  1.00  0.00     0.007 A 
ATOM     28  C   UNL     1      -6.250   1.154   2.178  1.00  0.00     0.021 A 
ATOM     29  C   UNL     1      -6.043  -1.187   2.752  1.00  0.00     0.021 A 
ATOM     30  C   UNL     1      -6.699   0.039   2.891  1.00  0.00     0.041 A 
ATOM     31  Cl  UNL     1      -8.085   0.178   3.957  1.00  0.00    -0.084 Cl
ENDBRANCH  18  25
ENDBRANCH   4  18
TORSDOF 6
