REMARK SMILES CNCC[C@H](Oc1cccc2ccccc12)c1cccs1
REMARK SMILES IDX 4 1 3 2 2 3 1 4 5 6 6 7 7 8 8 9 16 10 9 11 11 12 15 13 10 14
REMARK SMILES IDX 12 15 14 16 13 17 17 18 18 19 21 20 19 21 20 22
REMARK H PARENT 2 5
REMARK Flexibility Score: inf
ROOT
ATOM      1  C   UNL     1      -2.014   1.102   0.193  1.00  0.00     0.066 C 
ENDROOT
BRANCH   1   2
ATOM      2  C   UNL     1      -2.932   0.576   1.306  1.00  0.00     0.085 C 
BRANCH   2   3
ATOM      3  N   UNL     1      -3.991   1.552   1.602  1.00  0.00    -0.320 NA
ATOM      4  C   UNL     1      -3.565   2.512   2.625  1.00  0.00     0.101 C 
ATOM      5  H   UNL     1      -4.810   1.031   1.994  1.00  0.00     0.122 HD
ENDBRANCH   2   3
ENDBRANCH   1   2
BRANCH   1   6
ATOM      6  C   UNL     1      -0.891   0.111  -0.154  1.00  0.00     0.215 C 
BRANCH   6   7
ATOM      7  O   UNL     1       0.011   0.733  -1.068  1.00  0.00    -0.484 OA
BRANCH   7   8
ATOM      8  C   UNL     1       1.285   0.213  -1.317  1.00  0.00     0.128 A 
ATOM      9  C   UNL     1       1.487  -0.565  -2.464  1.00  0.00     0.047 A 
ATOM     10  C   UNL     1       2.362   0.463  -0.440  1.00  0.00     0.024 A 
ATOM     11  C   UNL     1       2.739  -1.122  -2.730  1.00  0.00     0.004 A 
ATOM     12  C   UNL     1       3.631  -0.109  -0.714  1.00  0.00    -0.015 A 
ATOM     13  C   UNL     1       2.208   1.278   0.697  1.00  0.00     0.012 A 
ATOM     14  C   UNL     1       3.807  -0.902  -1.858  1.00  0.00     0.009 A 
ATOM     15  C   UNL     1       4.706   0.127   0.158  1.00  0.00     0.009 A 
ATOM     16  C   UNL     1       3.287   1.505   1.554  1.00  0.00     0.001 A 
ATOM     17  C   UNL     1       4.531   0.929   1.288  1.00  0.00     0.001 A 
ENDBRANCH   7   8
ENDBRANCH   6   7
BRANCH   6  18
ATOM     18  C   UNL     1      -1.437  -1.151  -0.766  1.00  0.00     0.045 A 
ATOM     19  C   UNL     1      -1.282  -2.433  -0.254  1.00  0.00     0.019 A 
ATOM     20  S   UNL     1      -2.300  -1.251  -2.208  1.00  0.00    -0.145 S 
ATOM     21  C   UNL     1      -1.874  -3.420  -1.051  1.00  0.00     0.012 A 
ATOM     22  C   UNL     1      -2.491  -2.922  -2.191  1.00  0.00     0.065 A 
ENDBRANCH   6  18
ENDBRANCH   1   6
TORSDOF 6
