REMARK SMILES Cn1c(=O)c2c(ncn2C)n(C)c1=O
REMARK SMILES IDX 10 1 9 2 8 3 7 4 6 5 5 6 3 7 4 8 2 9 1 10 13 11 14 12 11 13
REMARK SMILES IDX 12 14
REMARK H PARENT
REMARK Flexibility Score: inf
ROOT
ATOM      1  C   UNL     1       3.129  -1.133  -0.245  1.00  0.00     0.151 C 
ATOM      2  N   UNL     1       2.148  -0.120   0.131  1.00  0.00    -0.328 N 
ATOM      3  C   UNL     1       2.399   1.107   0.650  1.00  0.00     0.202 A 
ATOM      4  N   UNL     1       1.273   1.831   0.880  1.00  0.00    -0.218 NA
ATOM      5  C   UNL     1       0.293   0.995   0.480  1.00  0.00     0.167 A 
ATOM      6  C   UNL     1       0.809  -0.170   0.029  1.00  0.00     0.152 A 
ATOM      7  C   UNL     1      -0.024  -1.168  -0.459  1.00  0.00     0.282 A 
ATOM      8  O   UNL     1       0.459  -2.248  -0.899  1.00  0.00    -0.267 OA
ATOM      9  N   UNL     1      -1.382  -0.942  -0.456  1.00  0.00    -0.261 N 
ATOM     10  C   UNL     1      -2.295  -1.960  -0.999  1.00  0.00     0.159 C 
ATOM     11  C   UNL     1      -1.885   0.273  -0.016  1.00  0.00     0.332 A 
ATOM     12  O   UNL     1      -3.127   0.497  -0.080  1.00  0.00    -0.247 OA
ATOM     13  N   UNL     1      -1.045   1.245   0.484  1.00  0.00    -0.279 N 
ATOM     14  C   UNL     1      -1.566   2.544   0.930  1.00  0.00     0.157 C 
ENDROOT
TORSDOF 0
