REMARK SMILES CN1CC(=O)N2[C@H](c3ccc4c(c3)OCO4)c3[nH]c4ccccc4c3C[C@@H]2C1=O
REMARK SMILES IDX 27 1 26 2 25 3 17 4 18 5 19 6 20 7 21 8 22 9 23 10 24 11
REMARK SMILES IDX 7 12 6 13 4 14 5 15 3 16 2 17 1 18 28 19 29 20 8 22 13 23
REMARK SMILES IDX 9 24 12 25 10 26 11 27 14 28 16 29 15 30
REMARK H PARENT 18 21
REMARK Flexibility Score: inf
ROOT
ATOM      1  C   UNL     1      -1.708  -1.384  -0.876  1.00  0.00     0.180 C 
ATOM      2  C   UNL     1      -2.225  -0.286   0.076  1.00  0.00     0.073 C 
ATOM      3  C   UNL     1      -1.684   1.027  -0.372  1.00  0.00    -0.014 A 
ATOM      4  C   UNL     1      -0.485   1.168  -1.038  1.00  0.00     0.047 A 
ATOM      5  N   UNL     1      -0.206   2.472  -1.269  1.00  0.00    -0.356 N 
ATOM      6  C   UNL     1      -1.234   3.155  -0.730  1.00  0.00     0.046 A 
ATOM      7  C   UNL     1      -1.400   4.539  -0.688  1.00  0.00     0.026 A 
ATOM      8  C   UNL     1      -2.547   5.045  -0.048  1.00  0.00     0.002 A 
ATOM      9  C   UNL     1      -3.490   4.168   0.533  1.00  0.00     0.001 A 
ATOM     10  C   UNL     1      -3.298   2.775   0.480  1.00  0.00     0.010 A 
ATOM     11  C   UNL     1      -2.155   2.304  -0.165  1.00  0.00     0.003 A 
ATOM     12  C   UNL     1       0.410   0.007  -1.372  1.00  0.00     0.164 C 
ATOM     13  N   UNL     1      -0.237  -1.290  -1.037  1.00  0.00    -0.316 N 
ATOM     14  C   UNL     1       0.526  -2.499  -1.170  1.00  0.00     0.243 C 
ATOM     15  O   UNL     1       1.538  -2.539  -1.922  1.00  0.00    -0.273 OA
ATOM     16  C   UNL     1       0.185  -3.686  -0.336  1.00  0.00     0.219 C 
ATOM     17  N   UNL     1      -1.262  -3.833  -0.166  1.00  0.00    -0.335 N 
ATOM     18  C   UNL     1      -1.779  -5.093   0.375  1.00  0.00     0.147 C 
ATOM     19  C   UNL     1      -2.176  -2.742  -0.399  1.00  0.00     0.245 C 
ATOM     20  O   UNL     1      -3.415  -2.926  -0.242  1.00  0.00    -0.272 OA
ATOM     21  H   UNL     1       0.641   2.864  -1.737  1.00  0.00     0.166 HD
ENDROOT
BRANCH  12  22
ATOM     22  C   UNL     1       1.706   0.171  -0.607  1.00  0.00    -0.015 A 
ATOM     23  C   UNL     1       1.735  -0.008   0.797  1.00  0.00     0.057 A 
ATOM     24  C   UNL     1       2.896   0.536  -1.289  1.00  0.00     0.010 A 
ATOM     25  C   UNL     1       2.947   0.171   1.455  1.00  0.00     0.166 A 
ATOM     26  C   UNL     1       4.101   0.707  -0.583  1.00  0.00     0.051 A 
ATOM     27  C   UNL     1       4.081   0.512   0.794  1.00  0.00     0.165 A 
ATOM     28  O   UNL     1       3.219   0.048   2.804  1.00  0.00    -0.454 OA
ATOM     29  O   UNL     1       5.124   0.621   1.694  1.00  0.00    -0.454 OA
ATOM     30  C   UNL     1       4.612   0.330   3.002  1.00  0.00     0.468 C 
ENDBRANCH  12  22
TORSDOF 1
