REMARK SMILES CN(C)[C@@H]1C(O)=C(C(N)=O)C(=O)[C@@]2(O)C(O)=C3C(=O)c4c(O)ccc(Cl)c4[C@@H](O)[C@H]3C[C@@H]12
REMARK SMILES IDX 30 1 31 2 32 3 4 4 5 5 7 6 11 7 12 8 13 9 15 10 17 11 18 12
REMARK SMILES IDX 19 13 20 14 27 15 28 16 25 17 26 18 24 19 23 20 21 21 29 22
REMARK SMILES IDX 16 24 2 26 1 27 3 28 14 29 6 31 22 33 8 35 9 36 10 37
REMARK H PARENT 29 23 16 25 14 30 6 32 22 34 9 38 9 39
REMARK Flexibility Score: inf
ROOT
ATOM      1  C   UNL     1       1.321   0.752   0.188  1.00  0.00     0.061 C 
ATOM      2  C   UNL     1      -0.133   1.068  -0.194  1.00  0.00     0.021 C 
ATOM      3  C   UNL     1      -1.087   0.165   0.607  1.00  0.00     0.062 C 
ATOM      4  C   UNL     1      -2.571   0.561   0.385  1.00  0.00     0.130 C 
ATOM      5  C   UNL     1      -3.085   0.161  -0.988  1.00  0.00     0.126 C 
ATOM      6  C   UNL     1      -2.515  -0.841  -1.699  1.00  0.00     0.125 C 
ATOM      7  C   UNL     1      -1.390  -1.627  -1.122  1.00  0.00     0.211 C 
ATOM      8  O   UNL     1      -0.910  -2.592  -1.788  1.00  0.00    -0.290 OA
ATOM      9  C   UNL     1      -0.827  -1.324   0.255  1.00  0.00     0.190 C 
ATOM     10  C   UNL     1       0.667  -1.664   0.268  1.00  0.00     0.140 C 
ATOM     11  C   UNL     1       1.638  -0.730   0.138  1.00  0.00     0.047 C 
ATOM     12  C   UNL     1       3.083  -1.096   0.097  1.00  0.00     0.197 C 
ATOM     13  O   UNL     1       3.435  -2.300  -0.070  1.00  0.00    -0.289 OA
ATOM     14  C   UNL     1       4.115  -0.028   0.136  1.00  0.00     0.071 A 
ATOM     15  C   UNL     1       3.760   1.273  -0.296  1.00  0.00     0.015 A 
ATOM     16  C   UNL     1       2.315   1.577  -0.664  1.00  0.00     0.154 C 
ATOM     17  C   UNL     1       4.767   2.254  -0.450  1.00  0.00     0.047 A 
ATOM     18  Cl  UNL     1       4.423   3.854  -1.098  1.00  0.00    -0.084 Cl
ATOM     19  C   UNL     1       6.092   1.956  -0.125  1.00  0.00     0.025 A 
ATOM     20  C   UNL     1       6.430   0.700   0.364  1.00  0.00     0.048 A 
ATOM     21  C   UNL     1       5.451  -0.288   0.534  1.00  0.00     0.127 A 
ENDROOT
BRANCH  16  22
ATOM     22  O   UNL     1       2.113   1.388  -2.038  1.00  0.00    -0.388 OA
ATOM     23  H   UNL     1       2.300   0.439  -2.246  1.00  0.00     0.211 HD
ENDBRANCH  16  22
BRANCH  10  24
ATOM     24  O   UNL     1       1.024  -3.007   0.377  1.00  0.00    -0.508 OA
ATOM     25  H   UNL     1       0.334  -3.735   0.446  1.00  0.00     0.293 HD
ENDBRANCH  10  24
BRANCH   4  26
ATOM     26  N   UNL     1      -3.400   0.053   1.524  1.00  0.00    -0.299 NA
ATOM     27  C   UNL     1      -4.386  -0.995   1.196  1.00  0.00     0.105 C 
ATOM     28  C   UNL     1      -4.059   1.156   2.249  1.00  0.00     0.105 C 
ENDBRANCH   4  26
BRANCH   9  29
ATOM     29  O   UNL     1      -1.490  -2.148   1.181  1.00  0.00    -0.374 OA
ATOM     30  H   UNL     1      -1.100  -1.974   2.078  1.00  0.00     0.212 HD
ENDBRANCH   9  29
BRANCH   5  31
ATOM     31  O   UNL     1      -4.217   0.848  -1.454  1.00  0.00    -0.510 OA
ATOM     32  H   UNL     1      -4.736   0.584  -2.272  1.00  0.00     0.293 HD
ENDBRANCH   5  31
BRANCH  21  33
ATOM     33  O   UNL     1       5.841  -1.490   1.128  1.00  0.00    -0.507 OA
ATOM     34  H   UNL     1       5.182  -2.149   1.533  1.00  0.00     0.293 HD
ENDBRANCH  21  33
BRANCH   6  35
ATOM     35  C   UNL     1      -2.970  -1.173  -3.072  1.00  0.00     0.255 C 
ATOM     36  N   UNL     1      -3.128  -0.154  -4.065  1.00  0.00    -0.365 N 
ATOM     37  O   UNL     1      -3.182  -2.379  -3.382  1.00  0.00    -0.269 OA
ATOM     38  H   UNL     1      -3.412  -0.406  -5.038  1.00  0.00     0.159 HD
ATOM     39  H   UNL     1      -2.887   0.843  -3.857  1.00  0.00     0.159 HD
ENDBRANCH   6  35
TORSDOF 7
