REMARK SMILES CO/N=C(\C(=O)N[C@@H]1C(=O)N2C(C(=O)O)=C(COC(C)=O)CS[C@H]12)c1csc(N)n1
REMARK SMILES IDX 24 1 23 2 22 3 16 4 12 5 11 6 9 7 10 8 8 9 7 10 5 11 6 13
REMARK SMILES IDX 4 14 3 15 25 16 26 17 30 18 27 19 28 20 29 21 2 24 1 25
REMARK SMILES IDX 13 26 14 27 15 28 17 30 18 31 19 32 20 33 21 34
REMARK H PARENT 7 12 29 22 29 23 15 29
REMARK Flexibility Score: inf
ROOT
ATOM      1  C   UNL     1      -0.823  -1.520  -0.896  1.00  0.00     0.181 C 
ATOM      2  S   UNL     1      -0.392  -1.812   0.854  1.00  0.00    -0.129 SA
ATOM      3  C   UNL     1      -2.144  -1.656   1.380  1.00  0.00     0.108 C 
ATOM      4  C   UNL     1      -2.738  -0.282   1.091  1.00  0.00     0.008 C 
ATOM      5  C   UNL     1      -2.478   0.342  -0.091  1.00  0.00     0.134 C 
ATOM      6  N   UNL     1      -1.514  -0.258  -0.964  1.00  0.00    -0.289 N 
ATOM      7  C   UNL     1      -0.560   0.173  -2.014  1.00  0.00     0.253 C 
ATOM      8  O   UNL     1      -0.424   1.195  -2.735  1.00  0.00    -0.272 OA
ATOM      9  C   UNL     1       0.201  -1.111  -1.840  1.00  0.00     0.206 C 
ENDROOT
BRANCH   9  10
ATOM     10  N   UNL     1       1.534  -0.882  -1.270  1.00  0.00    -0.336 N 
ATOM     11  C   UNL     1       2.511  -0.051  -1.913  1.00  0.00     0.276 C 
ATOM     12  H   UNL     1       1.871  -1.476  -0.480  1.00  0.00     0.164 HD
ATOM     13  O   UNL     1       2.346   0.301  -3.112  1.00  0.00    -0.267 OA
BRANCH  11  14
ATOM     14  C   UNL     1       3.721   0.382  -1.174  1.00  0.00     0.193 C 
ATOM     15  N   UNL     1       4.869   0.490  -1.775  1.00  0.00    -0.079 NA
BRANCH  14  16
ATOM     16  C   UNL     1       3.655   0.691   0.271  1.00  0.00     0.111 A 
ATOM     17  C   UNL     1       2.473   1.006   0.951  1.00  0.00     0.099 A 
ATOM     18  N   UNL     1       4.778   0.724   1.039  1.00  0.00    -0.218 NA
ATOM     19  S   UNL     1       2.858   1.314   2.560  1.00  0.00    -0.105 S 
ATOM     20  C   UNL     1       4.497   1.044   2.319  1.00  0.00     0.180 A 
BRANCH  20  21
ATOM     21  N   UNL     1       5.490   1.145   3.336  1.00  0.00    -0.375 N 
ATOM     22  H   UNL     1       6.493   0.967   3.111  1.00  0.00     0.159 HD
ATOM     23  H   UNL     1       5.221   1.400   4.312  1.00  0.00     0.159 HD
ENDBRANCH  20  21
ENDBRANCH  14  16
BRANCH  15  24
ATOM     24  O   UNL     1       5.041   0.200  -3.110  1.00  0.00    -0.398 OA
ATOM     25  C   UNL     1       6.316   0.334  -3.714  1.00  0.00     0.315 C 
ENDBRANCH  15  24
ENDBRANCH  11  14
ENDBRANCH   9  10
BRANCH   5  26
ATOM     26  C   UNL     1      -3.050   1.660  -0.461  1.00  0.00     0.352 C 
ATOM     27  O   UNL     1      -4.217   1.982  -0.115  1.00  0.00    -0.245 OA
BRANCH  26  28
ATOM     28  O   UNL     1      -2.307   2.545  -1.234  1.00  0.00    -0.477 OA
ATOM     29  H   UNL     1      -2.686   3.443  -1.507  1.00  0.00     0.297 HD
ENDBRANCH  26  28
ENDBRANCH   5  26
BRANCH   4  30
ATOM     30  C   UNL     1      -3.609   0.341   2.163  1.00  0.00     0.267 C 
BRANCH  30  31
ATOM     31  O   UNL     1      -4.989   0.225   1.823  1.00  0.00    -0.461 OA
BRANCH  31  32
ATOM     32  C   UNL     1      -5.706  -0.974   1.902  1.00  0.00     0.302 C 
ATOM     33  C   UNL     1      -7.121  -1.015   1.434  1.00  0.00     0.139 C 
ATOM     34  O   UNL     1      -5.163  -2.025   2.336  1.00  0.00    -0.253 OA
ENDBRANCH  31  32
ENDBRANCH  30  31
ENDBRANCH   4  30
TORSDOF 10
