REMARK SMILES C#C[C@]1(O)CC[C@H]2[C@@H]3CCC4=CCCC[C@@H]4[C@H]3C(=C)C[C@@]21CC
REMARK SMILES IDX 7 1 6 2 5 3 3 4 21 5 20 6 18 7 19 8 17 9 16 10 15 11 14 12
REMARK SMILES IDX 13 13 12 14 11 15 10 16 9 17 8 18 22 19 23 20 4 21 2 23 1 24
REMARK H PARENT 4 22
REMARK Flexibility Score: inf
ROOT
ATOM      1  C   UNL     1       1.333   1.001   0.155  1.00  0.00     0.003 C 
ATOM      2  C   UNL     1       2.247   2.130  -0.306  1.00  0.00     0.008 C 
ATOM      3  C   UNL     1       3.665   1.619   0.003  1.00  0.00     0.050 C 
ATOM      4  C   UNL     1       3.539   0.123   0.418  1.00  0.00     0.131 C 
ATOM      5  C   UNL     1       2.134  -0.299  -0.141  1.00  0.00     0.017 C 
ATOM      6  C   UNL     1       1.399  -1.470   0.582  1.00  0.00     0.042 C 
ATOM      7  C   UNL     1      -0.049  -1.499   0.112  1.00  0.00    -0.073 C 
ATOM      8  C   UNL     1      -0.468  -2.507  -0.676  1.00  0.00     0.008 C 
ATOM      9  C   UNL     1      -0.862  -0.222   0.374  1.00  0.00     0.025 C 
ATOM     10  C   UNL     1      -2.370  -0.265  -0.000  1.00  0.00     0.022 C 
ATOM     11  C   UNL     1      -3.157  -1.336   0.784  1.00  0.00     0.009 C 
ATOM     12  C   UNL     1      -4.586  -1.386   0.234  1.00  0.00     0.005 C 
ATOM     13  C   UNL     1      -5.298  -0.026   0.358  1.00  0.00     0.027 C 
ATOM     14  C   UNL     1      -4.377   1.176   0.335  1.00  0.00    -0.027 C 
ATOM     15  C   UNL     1      -3.031   1.080   0.256  1.00  0.00    -0.070 C 
ATOM     16  C   UNL     1      -2.191   2.262   0.672  1.00  0.00     0.031 C 
ATOM     17  C   UNL     1      -0.863   2.343  -0.088  1.00  0.00     0.009 C 
ATOM     18  C   UNL     1      -0.148   0.979  -0.326  1.00  0.00     0.001 C 
ENDROOT
BRANCH   5  19
ATOM     19  C   UNL     1       2.241  -0.593  -1.697  1.00  0.00     0.008 C 
ATOM     20  C   UNL     1       2.791  -1.975  -2.091  1.00  0.00     0.004 C 
ENDBRANCH   5  19
BRANCH   4  21
ATOM     21  O   UNL     1       4.584  -0.634  -0.140  1.00  0.00    -0.377 OA
ATOM     22  H   UNL     1       5.444  -0.228   0.150  1.00  0.00     0.212 HD
ENDBRANCH   4  21
BRANCH   4  23
ATOM     23  C   UNL     1       3.612   0.005   1.897  1.00  0.00    -0.071 C 
ATOM     24  C   UNL     1       3.674  -0.087   3.097  1.00  0.00     0.007 C 
ENDBRANCH   4  23
TORSDOF 3
