REMARK SMILES CN(C)/N=N/c1[nH]cnc1C(N)=O
REMARK SMILES IDX 6 1 10 2 9 3 8 4 7 5 5 7 4 8 2 9 1 10 3 11 11 12 12 13 13 14
REMARK H PARENT 7 6 12 15 12 16
REMARK Flexibility Score: inf
ROOT
ATOM      1  C   UNL     1      -1.379  -0.583  -0.079  1.00  0.00     0.187 A 
ATOM      2  C   UNL     1      -2.556   0.137  -0.145  1.00  0.00     0.174 A 
ATOM      3  N   UNL     1      -3.592  -0.724  -0.064  1.00  0.00    -0.229 NA
ATOM      4  C   UNL     1      -3.016  -1.940   0.061  1.00  0.00     0.199 A 
ATOM      5  N   UNL     1      -1.670  -1.887   0.052  1.00  0.00    -0.328 N 
ATOM      6  H   UNL     1      -1.007  -2.691   0.112  1.00  0.00     0.169 HD
ENDROOT
BRANCH   1   7
ATOM      7  N   UNL     1      -0.057  -0.062  -0.215  1.00  0.00    -0.112 NA
ATOM      8  N   UNL     1       0.961  -0.824  -0.172  1.00  0.00    -0.070 NA
BRANCH   8   9
ATOM      9  N   UNL     1       2.264  -0.314  -0.304  1.00  0.00    -0.285 NA
ATOM     10  C   UNL     1       2.489   1.123  -0.490  1.00  0.00     0.169 C 
ATOM     11  C   UNL     1       3.379  -1.255  -0.249  1.00  0.00     0.169 C 
ENDBRANCH   8   9
ENDBRANCH   1   7
BRANCH   2  12
ATOM     12  C   UNL     1      -2.731   1.592  -0.319  1.00  0.00     0.271 C 
ATOM     13  N   UNL     1      -1.674   2.517  -0.054  1.00  0.00    -0.364 N 
ATOM     14  O   UNL     1      -3.851   2.032  -0.691  1.00  0.00    -0.268 OA
ATOM     15  H   UNL     1      -0.798   2.227   0.431  1.00  0.00     0.160 HD
ATOM     16  H   UNL     1      -1.811   3.533  -0.252  1.00  0.00     0.160 HD
ENDBRANCH   2  12
TORSDOF 3
