REMARK SMILES OC(CCN1CCCC1)(c1ccccc1)C1CCCCC1
REMARK SMILES IDX 3 1 2 2 1 3 16 5 17 6 21 7 18 8 20 9 19 10 10 11 11 12 15 13
REMARK SMILES IDX 12 14 14 15 13 16 4 17 5 18 6 19 9 20 7 21 8 22
REMARK H PARENT 1 4
REMARK Flexibility Score: inf
ROOT
ATOM      1  C   UNL     1       0.795   0.744  -0.053  1.00  0.00     0.056 C 
ENDROOT
BRANCH   1   2
ATOM      2  C   UNL     1      -0.606   0.649   0.645  1.00  0.00     0.094 C 
BRANCH   2   3
ATOM      3  O   UNL     1      -0.404   0.454   2.030  1.00  0.00    -0.385 OA
ATOM      4  H   UNL     1      -1.287   0.348   2.469  1.00  0.00     0.211 HD
ENDBRANCH   2   3
BRANCH   2   5
ATOM      5  C   UNL     1      -1.451  -0.550   0.049  1.00  0.00     0.025 C 
ATOM      6  C   UNL     1      -0.814  -1.941   0.326  1.00  0.00     0.007 C 
ATOM      7  C   UNL     1      -2.934  -0.559   0.507  1.00  0.00     0.007 C 
ATOM      8  C   UNL     1      -1.808  -3.118   0.213  1.00  0.00     0.000 C 
ATOM      9  C   UNL     1      -3.766  -1.581  -0.295  1.00  0.00     0.000 C 
ATOM     10  C   UNL     1      -2.954  -2.808  -0.754  1.00  0.00     0.000 C 
ENDBRANCH   2   5
BRANCH   2  11
ATOM     11  C   UNL     1      -1.324   1.990   0.394  1.00  0.00    -0.016 A 
ATOM     12  C   UNL     1      -1.599   2.895   1.444  1.00  0.00     0.007 A 
ATOM     13  C   UNL     1      -1.671   2.371  -0.922  1.00  0.00     0.007 A 
ATOM     14  C   UNL     1      -2.237   4.112   1.187  1.00  0.00     0.000 A 
ATOM     15  C   UNL     1      -2.308   3.590  -1.169  1.00  0.00     0.000 A 
ATOM     16  C   UNL     1      -2.596   4.457  -0.116  1.00  0.00     0.000 A 
ENDBRANCH   2  11
ENDBRANCH   1   2
BRANCH   1  17
ATOM     17  C   UNL     1       1.943   0.007   0.668  1.00  0.00     0.088 C 
BRANCH  17  18
ATOM     18  N   UNL     1       3.200   0.129  -0.098  1.00  0.00    -0.303 NA
ATOM     19  C   UNL     1       4.353  -0.293   0.699  1.00  0.00     0.084 C 
ATOM     20  C   UNL     1       3.221  -0.716  -1.302  1.00  0.00     0.084 C 
ATOM     21  C   UNL     1       5.422  -0.718  -0.286  1.00  0.00     0.017 C 
ATOM     22  C   UNL     1       4.654  -1.199  -1.502  1.00  0.00     0.017 C 
ENDBRANCH  17  18
ENDBRANCH   1  17
TORSDOF 6
