REMARK SMILES CC/C=C\C/C=C\C/C=C\C/C=C\C/C=C\CCCC(=O)O
REMARK SMILES IDX 12 1 13 2 11 3 10 4 9 5 8 6 7 7 6 8 5 9 4 10 3 11 2 12 1 13
REMARK SMILES IDX 14 14 15 15 16 16 17 17 18 18 19 19 20 20 21 21 22 22
REMARK H PARENT 22 23
REMARK Flexibility Score: inf
ROOT
ATOM      1  C   UNL     1       0.680   1.697   1.218  1.00  0.00    -0.027 C 
ATOM      2  C   UNL     1       1.078   0.425   1.053  1.00  0.00    -0.027 C 
ENDROOT
BRANCH   1   3
ATOM      3  C   UNL     1       0.499   2.710   0.112  1.00  0.00     0.054 C 
BRANCH   3   4
ATOM      4  C   UNL     1      -0.603   2.325  -0.843  1.00  0.00    -0.027 C 
ATOM      5  C   UNL     1      -1.913   2.422  -0.557  1.00  0.00    -0.027 C 
BRANCH   5   6
ATOM      6  C   UNL     1      -2.444   2.942   0.755  1.00  0.00     0.054 C 
BRANCH   6   7
ATOM      7  C   UNL     1      -3.902   2.604   0.928  1.00  0.00    -0.027 C 
ATOM      8  C   UNL     1      -4.372   1.372   1.207  1.00  0.00    -0.027 C 
BRANCH   8   9
ATOM      9  C   UNL     1      -3.520   0.134   1.344  1.00  0.00     0.054 C 
BRANCH   9  10
ATOM     10  C   UNL     1      -3.221  -0.486   0.002  1.00  0.00    -0.027 C 
ATOM     11  C   UNL     1      -4.114  -1.174  -0.732  1.00  0.00    -0.031 C 
BRANCH  11  12
ATOM     12  C   UNL     1      -5.528  -1.450  -0.284  1.00  0.00     0.023 C 
ATOM     13  C   UNL     1      -6.259  -2.338  -1.291  1.00  0.00     0.008 C 
ENDBRANCH  11  12
ENDBRANCH   9  10
ENDBRANCH   8   9
ENDBRANCH   6   7
ENDBRANCH   5   6
ENDBRANCH   3   4
ENDBRANCH   1   3
BRANCH   2  14
ATOM     14  C   UNL     1       1.394  -0.224  -0.273  1.00  0.00     0.054 C 
BRANCH  14  15
ATOM     15  C   UNL     1       2.579   0.412  -0.950  1.00  0.00    -0.027 C 
ATOM     16  C   UNL     1       3.856   0.268  -0.552  1.00  0.00    -0.031 C 
BRANCH  16  17
ATOM     17  C   UNL     1       4.310  -0.638   0.566  1.00  0.00     0.027 C 
BRANCH  17  18
ATOM     18  C   UNL     1       4.579  -2.069   0.074  1.00  0.00     0.016 C 
BRANCH  18  19
ATOM     19  C   UNL     1       5.703  -2.163  -0.973  1.00  0.00     0.123 C 
BRANCH  19  20
ATOM     20  C   UNL     1       7.038  -1.817  -0.391  1.00  0.00     0.303 C 
ATOM     21  O   UNL     1       7.494  -0.648  -0.506  1.00  0.00    -0.252 OA
BRANCH  20  22
ATOM     22  O   UNL     1       7.759  -2.781   0.304  1.00  0.00    -0.481 OA
ATOM     23  H   UNL     1       8.662  -2.565   0.711  1.00  0.00     0.296 HD
ENDBRANCH  20  22
ENDBRANCH  19  20
ENDBRANCH  18  19
ENDBRANCH  17  18
ENDBRANCH  16  17
ENDBRANCH  14  15
ENDBRANCH   2  14
TORSDOF 14
