REMARK SMILES C[C@]12C=CC(=O)C=C1CC[C@@H]1[C@@H]2CC[C@]2(C)OC(=O)CC[C@@H]12
REMARK SMILES IDX 11 1 10 2 9 3 8 4 7 5 5 6 6 7 4 8 3 9 2 10 1 11 12 12 13 13
REMARK SMILES IDX 14 14 15 15 16 16 17 17 18 18 19 19 20 20 21 21 22 22
REMARK H PARENT
REMARK Flexibility Score: inf
ROOT
ATOM      1  C   UNL     1       0.222   0.157   0.638  1.00  0.00     0.001 C 
ATOM      2  C   UNL     1      -0.558  -0.203   1.927  1.00  0.00     0.009 C 
ATOM      3  C   UNL     1      -1.893   0.529   2.012  1.00  0.00     0.032 C 
ATOM      4  C   UNL     1      -2.707   0.246   0.781  1.00  0.00    -0.056 C 
ATOM      5  C   UNL     1      -3.950  -0.246   0.913  1.00  0.00     0.052 C 
ATOM      6  C   UNL     1      -4.747  -0.597  -0.260  1.00  0.00     0.178 C 
ATOM      7  O   UNL     1      -5.919  -1.036  -0.123  1.00  0.00    -0.290 OA
ATOM      8  C   UNL     1      -4.166  -0.453  -1.591  1.00  0.00     0.048 C 
ATOM      9  C   UNL     1      -2.938   0.041  -1.745  1.00  0.00    -0.012 C 
ATOM     10  C   UNL     1      -2.076   0.552  -0.585  1.00  0.00     0.010 C 
ATOM     11  C   UNL     1      -1.987   2.088  -0.743  1.00  0.00     0.021 C 
ATOM     12  C   UNL     1      -0.657  -0.138  -0.630  1.00  0.00     0.006 C 
ATOM     13  C   UNL     1       0.140   0.178  -1.925  1.00  0.00     0.009 C 
ATOM     14  C   UNL     1       1.469  -0.584  -1.977  1.00  0.00     0.049 C 
ATOM     15  C   UNL     1       2.361  -0.293  -0.756  1.00  0.00     0.112 C 
ATOM     16  C   UNL     1       2.875   1.170  -0.809  1.00  0.00     0.057 C 
ATOM     17  O   UNL     1       3.505  -1.143  -0.843  1.00  0.00    -0.459 OA
ATOM     18  C   UNL     1       4.293  -1.467   0.265  1.00  0.00     0.306 C 
ATOM     19  O   UNL     1       5.440  -1.953   0.082  1.00  0.00    -0.252 OA
ATOM     20  C   UNL     1       3.755  -1.356   1.664  1.00  0.00     0.123 C 
ATOM     21  C   UNL     1       2.498  -0.475   1.773  1.00  0.00     0.020 C 
ATOM     22  C   UNL     1       1.570  -0.635   0.545  1.00  0.00     0.037 C 
ENDROOT
TORSDOF 0
