REMARK SMILES O=C(O)c1ccccc1O
REMARK SMILES IDX 4 1 5 2 6 3 7 4 8 5 9 6 2 7 1 8 3 9 10 11
REMARK H PARENT 3 10 10 12
REMARK Flexibility Score: inf
ROOT
ATOM      1  C   UNL     1      -0.506   0.069  -0.014  1.00  0.00     0.101 A 
ATOM      2  C   UNL     1      -0.208  -1.275  -0.304  1.00  0.00     0.019 A 
ATOM      3  C   UNL     1       1.083  -1.655  -0.677  1.00  0.00     0.001 A 
ATOM      4  C   UNL     1       2.094  -0.700  -0.765  1.00  0.00     0.004 A 
ATOM      5  C   UNL     1       1.823   0.634  -0.461  1.00  0.00     0.047 A 
ATOM      6  C   UNL     1       0.538   1.029  -0.065  1.00  0.00     0.130 A 
ENDROOT
BRANCH   1   7
ATOM      7  C   UNL     1      -1.908   0.425   0.299  1.00  0.00     0.339 C 
ATOM      8  O   UNL     1      -2.385   1.537  -0.052  1.00  0.00    -0.246 OA
BRANCH   7   9
ATOM      9  O   UNL     1      -2.731  -0.501   0.935  1.00  0.00    -0.478 OA
ATOM     10  H   UNL     1      -3.700  -0.283   1.138  1.00  0.00     0.297 HD
ENDBRANCH   7   9
ENDBRANCH   1   7
BRANCH   6  11
ATOM     11  O   UNL     1       0.354   2.365   0.299  1.00  0.00    -0.507 OA
ATOM     12  H   UNL     1      -0.479   2.709   0.756  1.00  0.00     0.293 HD
ENDBRANCH   6  11
TORSDOF 3
