REMARK SMILES COc1ccc2c3c1O[C@H]1C(=O)CC[C@H]4[C@@H](C2)N(C)CC[C@]314
REMARK SMILES IDX 10 1 9 2 8 3 3 4 4 5 5 6 6 7 7 8 22 9 21 10 20 11 18 12
REMARK SMILES IDX 19 13 16 14 17 15 15 16 14 17 13 18 11 19 12 20 2 21 1 22
REMARK H PARENT
REMARK Flexibility Score: inf
ROOT
ATOM      1  C   UNL     1       0.664   1.969   0.814  1.00  0.00     0.251 C 
ATOM      2  O   UNL     1       1.987   1.434   0.676  1.00  0.00    -0.477 OA
ATOM      3  C   UNL     1       1.934   0.171   0.124  1.00  0.00     0.166 A 
ATOM      4  C   UNL     1       2.993  -0.567  -0.404  1.00  0.00     0.161 A 
ATOM      5  C   UNL     1       2.675  -1.746  -1.123  1.00  0.00     0.051 A 
ATOM      6  C   UNL     1       1.327  -2.101  -1.347  1.00  0.00     0.008 A 
ATOM      7  C   UNL     1       0.290  -1.331  -0.787  1.00  0.00    -0.039 A 
ATOM      8  C   UNL     1       0.647  -0.259   0.031  1.00  0.00     0.012 A 
ATOM      9  C   UNL     1      -0.285   0.722   0.669  1.00  0.00     0.049 C 
ATOM     10  C   UNL     1      -0.734   0.177   2.063  1.00  0.00     0.032 C 
ATOM     11  C   UNL     1      -2.144  -0.449   2.055  1.00  0.00     0.085 C 
ATOM     12  N   UNL     1      -2.388  -1.250   0.837  1.00  0.00    -0.303 NA
ATOM     13  C   UNL     1      -3.742  -1.824   0.864  1.00  0.00     0.105 C 
ATOM     14  C   UNL     1      -2.113  -0.552  -0.455  1.00  0.00     0.064 C 
ATOM     15  C   UNL     1      -1.141  -1.461  -1.257  1.00  0.00     0.055 C 
ATOM     16  C   UNL     1      -1.518   0.884  -0.241  1.00  0.00     0.022 C 
ATOM     17  C   UNL     1      -1.169   1.619  -1.545  1.00  0.00     0.014 C 
ATOM     18  C   UNL     1      -0.674   3.030  -1.233  1.00  0.00     0.080 C 
ATOM     19  C   UNL     1       0.462   3.043  -0.239  1.00  0.00     0.174 C 
ATOM     20  O   UNL     1       1.227   3.996  -0.248  1.00  0.00    -0.295 OA
ENDROOT
BRANCH   4  21
ATOM     21  O   UNL     1       4.305  -0.103  -0.235  1.00  0.00    -0.493 OA
ATOM     22  C   UNL     1       5.457  -0.767  -0.743  1.00  0.00     0.278 C 
ENDBRANCH   4  21
TORSDOF 1
