REMARK SMILES N=C(N)NC(=N)NCCc1ccccc1
REMARK SMILES IDX 8 1 7 2 3 3 2 4 1 7 4 8 5 10 6 12 9 15 10 16 11 17 15 18
REMARK SMILES IDX 12 19 14 20 13 21
REMARK H PARENT 3 5 3 6 1 9 4 11 6 13 7 14
REMARK Flexibility Score: inf
ROOT
ATOM      1  C   UNL     1      -0.205  -0.053  -0.069  1.00  0.00     0.120 C 
ENDROOT
BRANCH   1   2
ATOM      2  N   UNL     1       1.155   0.353  -0.425  1.00  0.00    -0.356 N 
ATOM      3  N   UNL     1       6.076  -0.077  -0.130  1.00  0.00    -0.370 N 
ATOM      4  C   UNL     1       4.804   0.025   0.507  1.00  0.00     0.192 C 
ATOM      5  H   UNL     1       6.145  -0.120  -1.171  1.00  0.00     0.159 HD
ATOM      6  H   UNL     1       6.953  -0.120   0.437  1.00  0.00     0.159 HD
ATOM      7  N   UNL     1       4.747   0.104   1.800  1.00  0.00    -0.269 NA
ATOM      8  N   UNL     1       3.617   0.126  -0.298  1.00  0.00    -0.298 N 
ATOM      9  H   UNL     1       3.849   0.234   2.317  1.00  0.00     0.191 HD
ATOM     10  C   UNL     1       2.309  -0.299   0.120  1.00  0.00     0.195 C 
ATOM     11  H   UNL     1       3.711   0.541  -1.252  1.00  0.00     0.173 HD
ATOM     12  N   UNL     1       2.163  -1.310   0.921  1.00  0.00    -0.269 NA
ATOM     13  H   UNL     1       2.973  -1.849   1.302  1.00  0.00     0.191 HD
ATOM     14  H   UNL     1       1.304   1.148  -1.088  1.00  0.00     0.163 HD
ENDBRANCH   1   2
BRANCH   1  15
ATOM     15  C   UNL     1      -1.241   0.820  -0.784  1.00  0.00     0.057 C 
BRANCH  15  16
ATOM     16  C   UNL     1      -2.637   0.398  -0.414  1.00  0.00    -0.046 A 
ATOM     17  C   UNL     1      -3.297  -0.598  -1.153  1.00  0.00     0.004 A 
ATOM     18  C   UNL     1      -3.272   0.955   0.709  1.00  0.00     0.004 A 
ATOM     19  C   UNL     1      -4.582  -1.012  -0.788  1.00  0.00     0.000 A 
ATOM     20  C   UNL     1      -4.557   0.538   1.071  1.00  0.00     0.000 A 
ATOM     21  C   UNL     1      -5.212  -0.443   0.322  1.00  0.00     0.000 A 
ENDBRANCH  15  16
ENDBRANCH   1  15
TORSDOF 3
