REMARK SMILES Nc1nc(Cl)nc2c1ncn2[C@@H]1O[C@H](CO)[C@@H](O)[C@@H]1F
REMARK SMILES IDX 19 1 20 2 17 3 14 4 13 5 12 6 18 7 11 9 10 10 7 11 9 12 8 13
REMARK SMILES IDX 6 14 2 15 4 16 3 17 5 18 1 19 15 22 16 23
REMARK H PARENT 18 8 1 20 1 21 16 24
REMARK Flexibility Score: inf
ROOT
ATOM      1  C   UNL     1      -1.405   1.310  -0.210  1.00  0.00     0.247 C 
ATOM      2  F   UNL     1      -0.790   1.379  -1.451  1.00  0.00    -0.239 F 
ATOM      3  C   UNL     1      -2.540   0.326  -0.221  1.00  0.00     0.184 C 
ATOM      4  C   UNL     1      -2.534  -0.183   1.215  1.00  0.00     0.178 C 
ATOM      5  O   UNL     1      -1.211  -0.131   1.700  1.00  0.00    -0.346 OA
ATOM      6  C   UNL     1      -0.485   0.764   0.881  1.00  0.00     0.259 C 
ENDROOT
BRANCH   3   7
ATOM      7  O   UNL     1      -3.759   0.952  -0.527  1.00  0.00    -0.387 OA
ATOM      8  H   UNL     1      -3.752   1.113  -1.506  1.00  0.00     0.211 HD
ENDBRANCH   3   7
BRANCH   6   9
ATOM      9  N   UNL     1       0.671   0.071   0.305  1.00  0.00    -0.285 N 
ATOM     10  C   UNL     1       0.730  -1.194  -0.191  1.00  0.00     0.204 A 
ATOM     11  C   UNL     1       1.884   0.572   0.041  1.00  0.00     0.169 A 
ATOM     12  N   UNL     1       1.938  -1.504  -0.738  1.00  0.00    -0.231 NA
ATOM     13  C   UNL     1       2.639  -0.367  -0.572  1.00  0.00     0.150 A 
ATOM     14  N   UNL     1       2.339   1.822   0.300  1.00  0.00    -0.198 NA
ATOM     15  C   UNL     1       3.941  -0.068  -0.956  1.00  0.00     0.156 A 
ATOM     16  C   UNL     1       3.619   2.127  -0.070  1.00  0.00     0.226 A 
ATOM     17  N   UNL     1       4.406   1.190  -0.690  1.00  0.00    -0.199 NA
ATOM     18  Cl  UNL     1       4.256   3.726   0.245  1.00  0.00    -0.041 Cl
BRANCH  15  19
ATOM     19  N   UNL     1       4.773  -1.026  -1.610  1.00  0.00    -0.382 N 
ATOM     20  H   UNL     1       5.746  -0.773  -1.889  1.00  0.00     0.158 HD
ATOM     21  H   UNL     1       4.424  -1.989  -1.817  1.00  0.00     0.158 HD
ENDBRANCH  15  19
ENDBRANCH   6   9
BRANCH   4  22
ATOM     22  C   UNL     1      -3.070  -1.615   1.334  1.00  0.00     0.191 C 
BRANCH  22  23
ATOM     23  O   UNL     1      -4.429  -1.666   0.989  1.00  0.00    -0.394 OA
ATOM     24  H   UNL     1      -4.471  -1.782   0.004  1.00  0.00     0.210 HD
ENDBRANCH  22  23
ENDBRANCH   4  22
TORSDOF 5
