REMARK SMILES Oc1ncnc2[nH]ncc12
REMARK SMILES IDX 2 1 3 2 4 3 5 4 6 5 10 6 9 7 8 8 7 9 1 11
REMARK H PARENT 7 10 1 12
REMARK Flexibility Score: inf
ROOT
ATOM      1  C   UNL     1      -1.150   0.723  -0.347  1.00  0.00     0.225 A 
ATOM      2  N   UNL     1      -2.007  -0.329  -0.505  1.00  0.00    -0.201 NA
ATOM      3  C   UNL     1      -1.595  -1.624  -0.314  1.00  0.00     0.228 A 
ATOM      4  N   UNL     1      -0.303  -1.897   0.042  1.00  0.00    -0.217 NA
ATOM      5  C   UNL     1       0.546  -0.853   0.198  1.00  0.00     0.162 A 
ATOM      6  C   UNL     1       0.161   0.433   0.014  1.00  0.00     0.101 A 
ATOM      7  C   UNL     1       1.288   1.188   0.261  1.00  0.00     0.151 A 
ATOM      8  N   UNL     1       2.301   0.342   0.581  1.00  0.00    -0.181 NA
ATOM      9  N   UNL     1       1.840  -0.905   0.540  1.00  0.00    -0.261 N 
ATOM     10  H   UNL     1       2.406  -1.758   0.743  1.00  0.00     0.192 HD
ENDROOT
BRANCH   1  11
ATOM     11  O   UNL     1      -1.593   2.028  -0.547  1.00  0.00    -0.493 OA
ATOM     12  H   UNL     1      -0.974   2.822  -0.436  1.00  0.00     0.295 HD
ENDBRANCH   1  11
TORSDOF 1
