REMARK SMILES CCOc1ccccc1OCCN[C@H](C)Cc1ccc(OC)c(S(N)(=O)=O)c1
REMARK SMILES IDX 12 1 11 2 10 3 9 4 4 5 5 6 6 7 8 8 7 9 3 10 2 11 1 12 13 13
REMARK SMILES IDX 14 15 15 16 16 17 17 18 28 19 18 20 23 21 19 22 20 23 24 24
REMARK SMILES IDX 26 25 27 26 25 27 21 30 22 31
REMARK H PARENT 13 14 25 28 25 29
REMARK Flexibility Score: inf
ROOT
ATOM      1  C   UNL     1       1.059  -0.019  -0.414  1.00  0.00     0.122 C 
ENDROOT
BRANCH   1   2
ATOM      2  C   UNL     1       2.084  -1.115  -0.076  1.00  0.00     0.245 C 
BRANCH   2   3
ATOM      3  O   UNL     1       3.414  -0.637  -0.280  1.00  0.00    -0.488 OA
BRANCH   3   4
ATOM      4  C   UNL     1       4.109   0.244   0.566  1.00  0.00     0.161 A 
ATOM      5  C   UNL     1       5.369   0.706   0.149  1.00  0.00     0.161 A 
ATOM      6  C   UNL     1       6.092   1.593   0.973  1.00  0.00     0.050 A 
ATOM      7  C   UNL     1       5.566   2.004   2.199  1.00  0.00     0.004 A 
ATOM      8  C   UNL     1       3.592   0.664   1.809  1.00  0.00     0.050 A 
ATOM      9  C   UNL     1       4.320   1.540   2.616  1.00  0.00     0.004 A 
BRANCH   5  10
ATOM     10  O   UNL     1       5.857   0.265  -1.094  1.00  0.00    -0.490 OA
BRANCH  10  11
ATOM     11  C   UNL     1       7.152   0.541  -1.627  1.00  0.00     0.226 C 
ATOM     12  C   UNL     1       8.213  -0.312  -0.939  1.00  0.00     0.049 C 
ENDBRANCH  10  11
ENDBRANCH   5  10
ENDBRANCH   3   4
ENDBRANCH   2   3
ENDBRANCH   1   2
BRANCH   1  13
ATOM     13  N   UNL     1      -0.330  -0.472  -0.217  1.00  0.00    -0.311 NA
ATOM     14  H   UNL     1      -0.360  -1.076   0.638  1.00  0.00     0.123 HD
BRANCH  13  15
ATOM     15  C   UNL     1      -0.875  -1.199  -1.383  1.00  0.00     0.055 C 
ATOM     16  C   UNL     1      -1.369  -0.204  -2.446  1.00  0.00     0.024 C 
BRANCH  15  17
ATOM     17  C   UNL     1      -2.007  -2.169  -0.960  1.00  0.00     0.054 C 
BRANCH  17  18
ATOM     18  C   UNL     1      -3.184  -1.478  -0.309  1.00  0.00    -0.045 A 
ATOM     19  C   UNL     1      -4.251  -1.010  -1.091  1.00  0.00     0.029 A 
ATOM     20  C   UNL     1      -3.219  -1.289   1.079  1.00  0.00     0.007 A 
ATOM     21  C   UNL     1      -5.337  -0.349  -0.499  1.00  0.00     0.124 A 
ATOM     22  C   UNL     1      -4.295  -0.628   1.676  1.00  0.00     0.048 A 
ATOM     23  C   UNL     1      -5.361  -0.146   0.894  1.00  0.00     0.138 A 
BRANCH  21  24
ATOM     24  S   UNL     1      -6.652   0.254  -1.514  1.00  0.00     0.241 S 
ATOM     25  O   UNL     1      -6.571  -0.358  -2.885  1.00  0.00    -0.207 OA
ATOM     26  O   UNL     1      -7.974  -0.116  -0.902  1.00  0.00    -0.207 OA
BRANCH  24  27
ATOM     27  N   UNL     1      -6.537   1.973  -1.654  1.00  0.00    -0.225 NA
ATOM     28  H   UNL     1      -6.598   2.365  -0.688  1.00  0.00     0.137 HD
ATOM     29  H   UNL     1      -5.576   2.186  -2.005  1.00  0.00     0.137 HD
ENDBRANCH  24  27
ENDBRANCH  21  24
BRANCH  23  30
ATOM     30  O   UNL     1      -6.449   0.534   1.465  1.00  0.00    -0.495 OA
ATOM     31  C   UNL     1      -6.590   0.811   2.854  1.00  0.00     0.278 C 
ENDBRANCH  23  30
ENDBRANCH  17  18
ENDBRANCH  15  17
ENDBRANCH  13  15
ENDBRANCH   1  13
TORSDOF 12
