REMARK SMILES CCCCC[C@H](O)/C=C/[C@H]1[C@H](O)CC(=O)[C@@H]1C/C=C\CCCC(=O)O
REMARK SMILES IDX 10 1 11 2 13 3 14 4 15 5 16 6 9 7 8 8 6 9 5 10 4 11 3 12
REMARK SMILES IDX 2 13 1 14 7 15 12 17 17 19 18 20 19 21 20 22 21 23 22 24
REMARK SMILES IDX 23 25 24 26 25 27
REMARK H PARENT 7 16 12 18 25 28
REMARK Flexibility Score: inf
ROOT
ATOM      1  C   UNL     1       0.272   1.404  -0.680  1.00  0.00     0.051 C 
ATOM      2  C   UNL     1       0.467   2.692  -1.535  1.00  0.00     0.129 C 
ATOM      3  C   UNL     1       1.438   3.607  -0.782  1.00  0.00     0.108 C 
ATOM      4  C   UNL     1       1.959   2.782   0.331  1.00  0.00     0.139 C 
ATOM      5  O   UNL     1       2.822   3.182   1.098  1.00  0.00    -0.299 OA
ATOM      6  C   UNL     1       1.319   1.446   0.460  1.00  0.00     0.069 C 
ENDROOT
BRANCH   1   7
ATOM      7  C   UNL     1      -1.135   1.309  -0.124  1.00  0.00    -0.022 C 
ATOM      8  C   UNL     1      -1.577   0.173   0.443  1.00  0.00     0.000 C 
BRANCH   8   9
ATOM      9  C   UNL     1      -2.973   0.028   1.006  1.00  0.00     0.137 C 
BRANCH   9  10
ATOM     10  C   UNL     1      -4.052   0.180  -0.093  1.00  0.00     0.036 C 
BRANCH  10  11
ATOM     11  C   UNL     1      -5.484  -0.048   0.425  1.00  0.00     0.003 C 
BRANCH  11  12
ATOM     12  C   UNL     1      -5.811  -1.540   0.622  1.00  0.00    -0.000 C 
BRANCH  12  13
ATOM     13  C   UNL     1      -7.231  -1.763   1.170  1.00  0.00    -0.003 C 
ATOM     14  C   UNL     1      -8.316  -1.502   0.125  1.00  0.00     0.004 C 
ENDBRANCH  12  13
ENDBRANCH  11  12
ENDBRANCH  10  11
ENDBRANCH   9  10
BRANCH   9  15
ATOM     15  O   UNL     1      -3.175   0.931   2.066  1.00  0.00    -0.389 OA
ATOM     16  H   UNL     1      -3.224   1.847   1.686  1.00  0.00     0.211 HD
ENDBRANCH   9  15
ENDBRANCH   8   9
ENDBRANCH   1   7
BRANCH   2  17
ATOM     17  O   UNL     1       1.013   2.366  -2.787  1.00  0.00    -0.392 OA
ATOM     18  H   UNL     1       0.275   1.983  -3.328  1.00  0.00     0.210 HD
ENDBRANCH   2  17
BRANCH   6  19
ATOM     19  C   UNL     1       2.345   0.292   0.401  1.00  0.00     0.039 C 
BRANCH  19  20
ATOM     20  C   UNL     1       3.158   0.258  -0.876  1.00  0.00    -0.031 C 
ATOM     21  C   UNL     1       4.128  -0.642  -1.114  1.00  0.00    -0.031 C 
BRANCH  21  22
ATOM     22  C   UNL     1       4.606  -1.664  -0.109  1.00  0.00     0.027 C 
BRANCH  22  23
ATOM     23  C   UNL     1       5.733  -1.098   0.776  1.00  0.00     0.016 C 
BRANCH  23  24
ATOM     24  C   UNL     1       7.058  -0.885   0.016  1.00  0.00     0.123 C 
BRANCH  24  25
ATOM     25  C   UNL     1       7.865  -2.148  -0.089  1.00  0.00     0.303 C 
ATOM     26  O   UNL     1       9.001  -2.219   0.464  1.00  0.00    -0.252 OA
BRANCH  25  27
ATOM     27  O   UNL     1       7.386  -3.227  -0.825  1.00  0.00    -0.481 OA
ATOM     28  H   UNL     1       7.930  -4.081  -0.908  1.00  0.00     0.296 HD
ENDBRANCH  25  27
ENDBRANCH  24  25
ENDBRANCH  23  24
ENDBRANCH  22  23
ENDBRANCH  21  22
ENDBRANCH  19  20
ENDBRANCH   6  19
TORSDOF 15
