REMARK SMILES CN1[C@@H]2CCC[C@H]1C[C@@H](NC(=O)c1nn(C)c3ccccc13)C2
REMARK SMILES IDX 11 1 12 2 10 3 13 5 16 6 15 7 14 8 17 9 22 10 18 11 21 12
REMARK SMILES IDX 19 13 20 14 9 15 8 16 23 17 7 18 3 19 6 20 2 21 4 22 5 23
REMARK SMILES IDX 1 24
REMARK H PARENT 10 4
REMARK Flexibility Score: inf
ROOT
ATOM      1  C   UNL     1       1.184   1.514  -0.377  1.00  0.00     0.272 C 
ATOM      2  O   UNL     1       0.673   2.548  -0.886  1.00  0.00    -0.267 OA
ATOM      3  N   UNL     1       0.363   0.374  -0.087  1.00  0.00    -0.348 N 
ATOM      4  H   UNL     1       0.688  -0.294   0.649  1.00  0.00     0.164 HD
ENDROOT
BRANCH   1   5
ATOM      5  C   UNL     1       2.618   1.518  -0.043  1.00  0.00     0.158 A 
ATOM      6  C   UNL     1       5.633   3.267   0.775  1.00  0.00     0.174 C 
ATOM      7  N   UNL     1       4.574   2.310   0.478  1.00  0.00    -0.267 N 
ATOM      8  N   UNL     1       3.318   2.650   0.212  1.00  0.00    -0.167 NA
ATOM      9  C   UNL     1       4.693   0.973   0.380  1.00  0.00     0.069 A 
ATOM     10  C   UNL     1       3.479   0.434   0.048  1.00  0.00     0.033 A 
ATOM     11  C   UNL     1       5.836   0.185   0.530  1.00  0.00     0.028 A 
ATOM     12  C   UNL     1       3.326  -0.934  -0.192  1.00  0.00     0.013 A 
ATOM     13  C   UNL     1       5.706  -1.200   0.323  1.00  0.00     0.002 A 
ATOM     14  C   UNL     1       4.458  -1.756  -0.040  1.00  0.00     0.001 A 
ENDBRANCH   1   5
BRANCH   3  15
ATOM     15  C   UNL     1      -1.017   0.257  -0.562  1.00  0.00     0.085 C 
ATOM     16  C   UNL     1      -1.993   0.791   0.515  1.00  0.00     0.044 C 
ATOM     17  C   UNL     1      -1.325  -1.214  -0.966  1.00  0.00     0.044 C 
ATOM     18  C   UNL     1      -3.491   0.575   0.122  1.00  0.00     0.058 C 
ATOM     19  C   UNL     1      -2.826  -1.560  -0.806  1.00  0.00     0.058 C 
ATOM     20  C   UNL     1      -4.305   0.001   1.306  1.00  0.00     0.019 C 
ATOM     21  N   UNL     1      -3.578  -0.314  -1.053  1.00  0.00    -0.300 NA
ATOM     22  C   UNL     1      -3.104  -2.177   0.608  1.00  0.00     0.019 C 
ATOM     23  C   UNL     1      -4.276  -1.541   1.375  1.00  0.00     0.003 C 
ATOM     24  C   UNL     1      -4.928  -0.504  -1.611  1.00  0.00     0.105 C 
ENDBRANCH   3  15
TORSDOF 2
