REMARK SMILES CN(C)CCOC(=O)C(c1ccccc1)C1(O)CCCC1
REMARK SMILES IDX 7 1 8 2 6 3 5 4 4 5 2 6 1 7 3 8 9 9 10 10 11 11 15 12 12 13
REMARK SMILES IDX 14 14 13 15 16 16 18 17 21 18 19 19 20 20 17 21
REMARK H PARENT 17 22
REMARK Flexibility Score: inf
ROOT
ATOM      1  C   UNL     1      -0.274   0.566  -1.451  1.00  0.00     0.316 C 
ATOM      2  O   UNL     1       0.057   1.256  -2.454  1.00  0.00    -0.251 OA
ENDROOT
BRANCH   1   3
ATOM      3  O   UNL     1       0.711   0.007  -0.632  1.00  0.00    -0.464 OA
BRANCH   3   4
ATOM      4  C   UNL     1       2.103   0.176  -0.871  1.00  0.00     0.248 C 
BRANCH   4   5
ATOM      5  C   UNL     1       2.894  -0.535   0.227  1.00  0.00     0.125 C 
BRANCH   5   6
ATOM      6  N   UNL     1       4.344  -0.500  -0.064  1.00  0.00    -0.306 NA
ATOM      7  C   UNL     1       5.025  -1.615   0.615  1.00  0.00     0.105 C 
ATOM      8  C   UNL     1       4.942   0.774   0.374  1.00  0.00     0.105 C 
ENDBRANCH   5   6
ENDBRANCH   4   5
ENDBRANCH   3   4
ENDBRANCH   1   3
BRANCH   1   9
ATOM      9  C   UNL     1      -1.745   0.394  -1.130  1.00  0.00     0.161 C 
BRANCH   9  10
ATOM     10  C   UNL     1      -2.308   1.633  -0.448  1.00  0.00    -0.031 A 
ATOM     11  C   UNL     1      -3.605   2.076  -0.773  1.00  0.00     0.005 A 
ATOM     12  C   UNL     1      -1.585   2.328   0.543  1.00  0.00     0.005 A 
ATOM     13  C   UNL     1      -4.156   3.191  -0.136  1.00  0.00     0.000 A 
ATOM     14  C   UNL     1      -2.142   3.443   1.177  1.00  0.00     0.000 A 
ATOM     15  C   UNL     1      -3.425   3.874   0.837  1.00  0.00     0.000 A 
ENDBRANCH   9  10
BRANCH   9  16
ATOM     16  C   UNL     1      -2.128  -0.919  -0.365  1.00  0.00     0.082 C 
ATOM     17  C   UNL     1      -1.626  -0.951   1.097  1.00  0.00     0.036 C 
ATOM     18  C   UNL     1      -1.535  -2.183  -1.041  1.00  0.00     0.036 C 
ATOM     19  C   UNL     1      -1.220  -2.389   1.365  1.00  0.00     0.003 C 
ATOM     20  C   UNL     1      -0.751  -2.935   0.029  1.00  0.00     0.003 C 
BRANCH  16  21
ATOM     21  O   UNL     1      -3.538  -1.015  -0.372  1.00  0.00    -0.389 OA
ATOM     22  H   UNL     1      -3.803  -1.829   0.132  1.00  0.00     0.211 HD
ENDBRANCH  16  21
ENDBRANCH   9  16
ENDBRANCH   1   9
TORSDOF 8
