REMARK SMILES CC(=O)N(O)CCCCCNC(=O)CCC(=O)N(O)CCCCCNC(=O)CCC(=O)N(O)CCCCCN
REMARK SMILES IDX 21 1 20 2 18 3 16 4 17 5 15 6 14 7 12 8 11 9 13 11 10 12
REMARK SMILES IDX 9 13 8 14 7 15 6 16 4 17 2 18 1 19 3 20 5 21 19 23 22 25
REMARK SMILES IDX 23 26 24 27 25 28 26 29 27 31 28 32 29 33 30 34 31 35 32 36
REMARK SMILES IDX 33 37 34 39 35 40 36 41 37 42 38 43 39 44
REMARK H PARENT 11 10 5 22 19 24 25 30 33 38 39 45 39 46
REMARK Flexibility Score: inf
ROOT
ATOM      1  C   UNL     1      -0.268  -0.656   0.463  1.00  0.00     0.024 C 
ENDROOT
BRANCH   1   2
ATOM      2  C   UNL     1      -1.705  -0.587   1.006  1.00  0.00     0.153 C 
BRANCH   2   3
ATOM      3  N   UNL     1      -2.638  -1.288   0.113  1.00  0.00    -0.225 N 
BRANCH   3   4
ATOM      4  C   UNL     1      -2.979  -0.813  -1.206  1.00  0.00     0.246 C 
ATOM      5  O   UNL     1      -3.471  -1.628  -2.038  1.00  0.00    -0.273 OA
BRANCH   4   6
ATOM      6  C   UNL     1      -2.721   0.617  -1.641  1.00  0.00     0.112 C 
BRANCH   6   7
ATOM      7  C   UNL     1      -3.824   1.165  -2.559  1.00  0.00     0.110 C 
BRANCH   7   8
ATOM      8  C   UNL     1      -5.164   1.143  -1.881  1.00  0.00     0.220 C 
ATOM      9  N   UNL     1      -6.173   0.221  -2.316  1.00  0.00    -0.356 N 
ATOM     10  H   UNL     1      -6.006  -0.346  -3.178  1.00  0.00     0.163 HD
ATOM     11  O   UNL     1      -5.386   1.924  -0.917  1.00  0.00    -0.275 OA
BRANCH   9  12
ATOM     12  C   UNL     1      -7.413   0.008  -1.573  1.00  0.00     0.116 C 
BRANCH  12  13
ATOM     13  C   UNL     1      -7.167  -0.957  -0.408  1.00  0.00     0.021 C 
BRANCH  13  14
ATOM     14  C   UNL     1      -8.408  -1.151   0.480  1.00  0.00     0.004 C 
BRANCH  14  15
ATOM     15  C   UNL     1      -9.570  -1.878  -0.234  1.00  0.00     0.024 C 
BRANCH  15  16
ATOM     16  C   UNL     1     -10.704  -0.931  -0.655  1.00  0.00     0.153 C 
BRANCH  16  17
ATOM     17  N   UNL     1     -11.406  -0.383   0.516  1.00  0.00    -0.225 N 
BRANCH  17  18
ATOM     18  C   UNL     1     -11.504   1.028   0.801  1.00  0.00     0.242 C 
ATOM     19  C   UNL     1     -10.859   2.072  -0.062  1.00  0.00     0.117 C 
ATOM     20  O   UNL     1     -12.143   1.407   1.821  1.00  0.00    -0.273 OA
ENDBRANCH  17  18
BRANCH  17  21
ATOM     21  O   UNL     1     -12.065  -1.249   1.325  1.00  0.00    -0.286 OA
ATOM     22  H   UNL     1     -11.421  -1.473   2.048  1.00  0.00     0.246 HD
ENDBRANCH  17  21
ENDBRANCH  16  17
ENDBRANCH  15  16
ENDBRANCH  14  15
ENDBRANCH  13  14
ENDBRANCH  12  13
ENDBRANCH   9  12
ENDBRANCH   7   8
ENDBRANCH   6   7
ENDBRANCH   4   6
ENDBRANCH   3   4
BRANCH   3  23
ATOM     23  O   UNL     1      -3.172  -2.461   0.536  1.00  0.00    -0.286 OA
ATOM     24  H   UNL     1      -4.015  -2.210   0.995  1.00  0.00     0.246 HD
ENDBRANCH   3  23
ENDBRANCH   2   3
ENDBRANCH   1   2
BRANCH   1  25
ATOM     25  C   UNL     1       0.623   0.470   1.010  1.00  0.00     0.004 C 
BRANCH  25  26
ATOM     26  C   UNL     1       0.897   0.329   2.518  1.00  0.00     0.021 C 
BRANCH  26  27
ATOM     27  C   UNL     1       1.699   1.516   3.064  1.00  0.00     0.116 C 
BRANCH  27  28
ATOM     28  N   UNL     1       2.995   1.632   2.398  1.00  0.00    -0.356 N 
ATOM     29  C   UNL     1       4.086   0.734   2.660  1.00  0.00     0.220 C 
ATOM     30  H   UNL     1       3.135   2.418   1.723  1.00  0.00     0.163 HD
ATOM     31  O   UNL     1       3.965  -0.181   3.519  1.00  0.00    -0.275 OA
BRANCH  29  32
ATOM     32  C   UNL     1       5.356   0.843   1.872  1.00  0.00     0.110 C 
BRANCH  32  33
ATOM     33  C   UNL     1       5.267  -0.021   0.608  1.00  0.00     0.112 C 
BRANCH  33  34
ATOM     34  C   UNL     1       6.560   0.038  -0.157  1.00  0.00     0.246 C 
ATOM     35  O   UNL     1       6.850   1.097  -0.781  1.00  0.00    -0.273 OA
BRANCH  34  36
ATOM     36  N   UNL     1       7.481  -1.071  -0.151  1.00  0.00    -0.225 N 
BRANCH  36  37
ATOM     37  O   UNL     1       7.089  -2.279   0.331  1.00  0.00    -0.286 OA
ATOM     38  H   UNL     1       7.355  -2.272   1.288  1.00  0.00     0.246 HD
ENDBRANCH  36  37
BRANCH  36  39
ATOM     39  C   UNL     1       8.829  -0.945  -0.709  1.00  0.00     0.153 C 
BRANCH  39  40
ATOM     40  C   UNL     1       9.719  -0.134   0.245  1.00  0.00     0.024 C 
BRANCH  40  41
ATOM     41  C   UNL     1      11.198  -0.150  -0.168  1.00  0.00     0.003 C 
BRANCH  41  42
ATOM     42  C   UNL     1      11.465   0.664  -1.443  1.00  0.00     0.015 C 
BRANCH  42  43
ATOM     43  C   UNL     1      12.960   0.739  -1.771  1.00  0.00     0.077 C 
BRANCH  43  44
ATOM     44  N   UNL     1      13.485  -0.582  -2.111  1.00  0.00    -0.330 NA
ATOM     45  H   UNL     1      14.504  -0.477  -2.323  1.00  0.00     0.118 HD
ATOM     46  H   UNL     1      13.031  -0.901  -3.000  1.00  0.00     0.118 HD
ENDBRANCH  43  44
ENDBRANCH  42  43
ENDBRANCH  41  42
ENDBRANCH  40  41
ENDBRANCH  39  40
ENDBRANCH  36  39
ENDBRANCH  34  36
ENDBRANCH  33  34
ENDBRANCH  32  33
ENDBRANCH  29  32
ENDBRANCH  27  28
ENDBRANCH  26  27
ENDBRANCH  25  26
ENDBRANCH   1  25
TORSDOF 30
