REMARK SMILES Cc1ccccc1N1C(=O)c2cc(S(N)(=O)=O)c(Cl)cc2NC1C
REMARK SMILES IDX 24 1 23 2 22 3 21 4 20 5 18 6 19 7 13 8 12 9 11 10 9 11
REMARK SMILES IDX 10 12 8 13 7 15 6 16 2 17 5 18 3 19 1 20 4 21 14 22 16 23
REMARK SMILES IDX 17 24 15 25
REMARK H PARENT 22 14 15 26 15 27
REMARK Flexibility Score: inf
ROOT
ATOM      1  C   UNL     1      -2.058   1.274  -2.151  1.00  0.00     0.056 C 
ATOM      2  C   UNL     1      -0.879   0.380  -1.740  1.00  0.00     0.181 C 
ATOM      3  N   UNL     1       0.361   1.162  -1.822  1.00  0.00    -0.364 N 
ATOM      4  C   UNL     1       1.500   0.899  -0.992  1.00  0.00     0.050 A 
ATOM      5  C   UNL     1       2.743   1.462  -1.307  1.00  0.00     0.048 A 
ATOM      6  C   UNL     1       3.863   1.213  -0.506  1.00  0.00     0.063 A 
ATOM      7  Cl  UNL     1       5.395   1.939  -0.980  1.00  0.00    -0.083 Cl
ATOM      8  C   UNL     1       3.740   0.396   0.637  1.00  0.00     0.101 A 
ATOM      9  C   UNL     1       2.491  -0.164   0.948  1.00  0.00     0.039 A 
ATOM     10  C   UNL     1       1.371   0.089   0.140  1.00  0.00     0.065 A 
ATOM     11  C   UNL     1       0.047  -0.463   0.465  1.00  0.00     0.262 C 
ATOM     12  O   UNL     1      -0.100  -1.181   1.493  1.00  0.00    -0.269 OA
ATOM     13  N   UNL     1      -1.082  -0.181  -0.385  1.00  0.00    -0.288 N 
ATOM     14  H   UNL     1       0.493   1.784  -2.652  1.00  0.00     0.162 HD
ENDROOT
BRANCH  13  15
ATOM     15  C   UNL     1      -2.360  -0.740  -0.027  1.00  0.00     0.049 A 
ATOM     16  C   UNL     1      -2.846  -1.859  -0.723  1.00  0.00     0.027 A 
ATOM     17  C   UNL     1      -3.131  -0.177   1.016  1.00  0.00    -0.027 A 
ATOM     18  C   UNL     1      -4.076  -2.425  -0.380  1.00  0.00     0.002 A 
ATOM     19  C   UNL     1      -4.358  -0.768   1.361  1.00  0.00     0.005 A 
ATOM     20  C   UNL     1      -2.640   1.014   1.792  1.00  0.00     0.046 C 
ATOM     21  C   UNL     1      -4.829  -1.883   0.662  1.00  0.00     0.000 A 
ENDBRANCH  13  15
BRANCH   8  22
ATOM     22  S   UNL     1       5.128   0.044   1.677  1.00  0.00     0.239 S 
ATOM     23  O   UNL     1       5.868   1.313   1.994  1.00  0.00    -0.207 OA
ATOM     24  O   UNL     1       4.662  -0.567   2.970  1.00  0.00    -0.207 OA
BRANCH  22  25
ATOM     25  N   UNL     1       6.189  -1.069   0.885  1.00  0.00    -0.225 NA
ATOM     26  H   UNL     1       6.514  -0.615   0.003  1.00  0.00     0.137 HD
ATOM     27  H   UNL     1       5.612  -1.894   0.605  1.00  0.00     0.137 HD
ENDBRANCH  22  25
ENDBRANCH   8  22
TORSDOF 3
