REMARK SMILES CC1=C(/C=C/C(C)=C/C=C/C(C)=C\C(=O)O)C(C)(C)CCC1
REMARK SMILES IDX 9 1 10 2 8 3 7 4 6 5 5 6 4 7 3 8 2 9 17 10 1 11 22 12 20 13
REMARK SMILES IDX 18 14 19 15 21 16 11 17 12 18 13 19 14 20 15 21 16 22
REMARK H PARENT 16 23
REMARK Flexibility Score: inf
ROOT
ATOM      1  C   UNL     1       3.388  -0.174  -0.363  1.00  0.00     0.001 C 
ATOM      2  C   UNL     1       4.280  -1.040   0.130  1.00  0.00     0.003 C 
ENDROOT
BRANCH   1   3
ATOM      3  C   UNL     1       1.939  -0.380  -0.150  1.00  0.00     0.003 C 
ATOM      4  C   UNL     1       1.309   1.396  -1.788  1.00  0.00     0.044 C 
ATOM      5  C   UNL     1       0.977   0.345  -0.753  1.00  0.00    -0.051 C 
BRANCH   5   6
ATOM      6  C   UNL     1      -0.432   0.095  -0.357  1.00  0.00     0.004 C 
ATOM      7  C   UNL     1      -1.406   1.002  -0.493  1.00  0.00     0.004 C 
BRANCH   7   8
ATOM      8  C   UNL     1      -2.793   0.704  -0.064  1.00  0.00    -0.043 C 
ATOM      9  C   UNL     1      -3.106   0.712   1.262  1.00  0.00    -0.070 C 
ATOM     10  C   UNL     1      -3.799   0.284  -1.147  1.00  0.00    -0.010 C 
ATOM     11  C   UNL     1      -2.092   1.138   2.297  1.00  0.00     0.040 C 
ATOM     12  C   UNL     1      -4.510   0.445   1.758  1.00  0.00     0.031 C 
ATOM     13  C   UNL     1      -5.257   0.282  -0.614  1.00  0.00     0.011 C 
ATOM     14  C   UNL     1      -3.425  -1.129  -1.651  1.00  0.00     0.016 C 
ATOM     15  C   UNL     1      -3.737   1.265  -2.340  1.00  0.00     0.016 C 
ATOM     16  C   UNL     1      -5.353  -0.353   0.769  1.00  0.00     0.005 C 
ENDBRANCH   7   8
ENDBRANCH   5   6
ENDBRANCH   1   3
BRANCH   2  17
ATOM     17  C   UNL     1       5.745  -0.865  -0.047  1.00  0.00    -0.044 C 
ATOM     18  C   UNL     1       6.262  -0.168  -1.283  1.00  0.00     0.044 C 
ATOM     19  C   UNL     1       6.641  -1.309   0.859  1.00  0.00     0.096 C 
BRANCH  19  20
ATOM     20  C   UNL     1       6.329  -1.901   2.178  1.00  0.00     0.328 C 
ATOM     21  O   UNL     1       5.201  -1.755   2.721  1.00  0.00    -0.247 OA
BRANCH  20  22
ATOM     22  O   UNL     1       7.328  -2.591   2.857  1.00  0.00    -0.478 OA
ATOM     23  H   UNL     1       7.153  -2.996   3.769  1.00  0.00     0.297 HD
ENDBRANCH  20  22
ENDBRANCH  19  20
ENDBRANCH   2  17
TORSDOF 6
