REMARK SMILES CCC(=O)N(c1ccccc1)C1(COC)CCN(CCn2nnn(CC)c2=O)CC1
REMARK SMILES IDX 18 1 17 2 16 3 12 4 30 5 29 6 19 7 20 8 21 9 24 10 23 11
REMARK SMILES IDX 27 12 22 13 28 14 25 15 26 16 13 17 14 18 15 19 5 20 3 21
REMARK SMILES IDX 4 22 2 23 1 24 6 25 7 26 11 27 8 28 10 29 9 30
REMARK H PARENT
REMARK Flexibility Score: inf
ROOT
ATOM      1  N   UNL     1       1.267  -0.133  -0.057  1.00  0.00    -0.301 NA
ATOM      2  C   UNL     1       0.634  -1.338  -0.622  1.00  0.00     0.087 C 
ATOM      3  C   UNL     1      -0.731  -1.578   0.044  1.00  0.00     0.047 C 
ATOM      4  C   UNL     1      -1.511  -0.264   0.381  1.00  0.00     0.073 C 
ATOM      5  C   UNL     1      -0.992   0.878  -0.553  1.00  0.00     0.047 C 
ATOM      6  C   UNL     1       0.537   1.088  -0.467  1.00  0.00     0.087 C 
ENDROOT
BRANCH   1   7
ATOM      7  C   UNL     1       2.694  -0.047  -0.429  1.00  0.00     0.108 C 
BRANCH   7   8
ATOM      8  C   UNL     1       3.556  -0.809   0.584  1.00  0.00     0.167 C 
BRANCH   8   9
ATOM      9  N   UNL     1       4.961  -0.746   0.197  1.00  0.00    -0.192 N 
ATOM     10  N   UNL     1       7.005  -0.051  -0.197  1.00  0.00    -0.194 N 
ATOM     11  N   UNL     1       6.830  -1.232  -0.774  1.00  0.00    -0.044 NA
ATOM     12  C   UNL     1       5.836   0.253   0.387  1.00  0.00     0.363 A 
ATOM     13  N   UNL     1       5.593  -1.653  -0.534  1.00  0.00    -0.044 NA
ATOM     14  O   UNL     1       5.592   1.323   1.010  1.00  0.00    -0.244 OA
BRANCH  10  15
ATOM     15  C   UNL     1       8.201   0.774  -0.320  1.00  0.00     0.148 C 
ATOM     16  C   UNL     1       8.123   1.628  -1.579  1.00  0.00     0.030 C 
ENDBRANCH  10  15
ENDBRANCH   8   9
ENDBRANCH   7   8
ENDBRANCH   1   7
BRANCH   4  17
ATOM     17  C   UNL     1      -1.266   0.152   1.863  1.00  0.00     0.188 C 
BRANCH  17  18
ATOM     18  O   UNL     1      -1.997   1.328   2.154  1.00  0.00    -0.382 OA
ATOM     19  C   UNL     1      -2.081   1.505   3.551  1.00  0.00     0.195 C 
ENDBRANCH  17  18
ENDBRANCH   4  17
BRANCH   4  20
ATOM     20  N   UNL     1      -2.975  -0.501   0.191  1.00  0.00    -0.304 N 
BRANCH  20  21
ATOM     21  C   UNL     1      -3.704  -1.398   1.061  1.00  0.00     0.227 C 
ATOM     22  O   UNL     1      -3.128  -2.405   1.557  1.00  0.00    -0.275 OA
BRANCH  21  23
ATOM     23  C   UNL     1      -5.173  -1.188   1.331  1.00  0.00     0.097 C 
ATOM     24  C   UNL     1      -5.522  -1.454   2.795  1.00  0.00     0.014 C 
ENDBRANCH  21  23
ENDBRANCH  20  21
BRANCH  20  25
ATOM     25  C   UNL     1      -3.656  -0.064  -1.000  1.00  0.00     0.044 A 
ATOM     26  C   UNL     1      -3.820  -0.945  -2.079  1.00  0.00     0.026 A 
ATOM     27  C   UNL     1      -4.169   1.239  -1.084  1.00  0.00     0.026 A 
ATOM     28  C   UNL     1      -4.472  -0.519  -3.240  1.00  0.00     0.002 A 
ATOM     29  C   UNL     1      -4.821   1.663  -2.245  1.00  0.00     0.002 A 
ATOM     30  C   UNL     1      -4.969   0.786  -3.324  1.00  0.00     0.000 A 
ENDBRANCH  20  25
ENDBRANCH   4  20
TORSDOF 10
