REMARK SMILES CCCCOc1cc(C(=O)NCCN(CC)CC)c2ccccc2n1
REMARK SMILES IDX 6 1 25 2 24 3 23 4 22 5 21 6 20 7 19 8 8 9 7 10 5 11 4 12
REMARK SMILES IDX 3 13 2 14 1 15 9 16 10 17 11 18 12 20 13 21 14 22 15 23
REMARK SMILES IDX 16 24 17 25 18 26
REMARK H PARENT 11 19
REMARK Flexibility Score: inf
ROOT
ATOM      1  C   UNL     1       3.020   0.328   0.026  1.00  0.00     0.214 A 
ATOM      2  N   UNL     1       3.193  -0.937   0.495  1.00  0.00    -0.213 NA
ATOM      3  C   UNL     1       2.160  -1.675   0.977  1.00  0.00     0.075 A 
ATOM      4  C   UNL     1       2.404  -2.964   1.466  1.00  0.00     0.029 A 
ATOM      5  C   UNL     1       1.359  -3.722   1.998  1.00  0.00     0.002 A 
ATOM      6  C   UNL     1       0.069  -3.192   2.056  1.00  0.00     0.001 A 
ATOM      7  C   UNL     1      -0.189  -1.907   1.569  1.00  0.00     0.011 A 
ATOM      8  C   UNL     1       0.849  -1.138   1.000  1.00  0.00     0.013 A 
ATOM      9  C   UNL     1       0.644   0.167   0.485  1.00  0.00     0.054 A 
ATOM     10  C   UNL     1       1.747   0.898   0.020  1.00  0.00     0.083 A 
ENDROOT
BRANCH   1  11
ATOM     11  O   UNL     1       4.105   1.066  -0.456  1.00  0.00    -0.478 OA
BRANCH  11  12
ATOM     12  C   UNL     1       5.434   0.556  -0.482  1.00  0.00     0.231 C 
BRANCH  12  13
ATOM     13  C   UNL     1       6.372   1.616  -1.064  1.00  0.00     0.041 C 
BRANCH  13  14
ATOM     14  C   UNL     1       7.806   1.098  -1.255  1.00  0.00     0.000 C 
ATOM     15  C   UNL     1       8.536   0.882   0.070  1.00  0.00     0.004 C 
ENDBRANCH  13  14
ENDBRANCH  12  13
ENDBRANCH  11  12
ENDBRANCH   1  11
BRANCH   9  16
ATOM     16  C   UNL     1      -0.694   0.791   0.395  1.00  0.00     0.252 C 
ATOM     17  O   UNL     1      -0.860   1.964   0.828  1.00  0.00    -0.269 OA
ATOM     18  N   UNL     1      -1.781   0.098  -0.233  1.00  0.00    -0.351 N 
ATOM     19  H   UNL     1      -1.586  -0.814  -0.708  1.00  0.00     0.163 HD
BRANCH  18  20
ATOM     20  C   UNL     1      -3.139   0.642  -0.224  1.00  0.00     0.131 C 
BRANCH  20  21
ATOM     21  C   UNL     1      -4.114  -0.323  -0.918  1.00  0.00     0.105 C 
BRANCH  21  22
ATOM     22  N   UNL     1      -5.540   0.074  -0.819  1.00  0.00    -0.302 NA
BRANCH  22  23
ATOM     23  C   UNL     1      -5.877   1.350  -1.497  1.00  0.00     0.081 C 
ATOM     24  C   UNL     1      -5.902   2.579  -0.573  1.00  0.00     0.021 C 
ENDBRANCH  22  23
BRANCH  22  25
ATOM     25  C   UNL     1      -6.176  -0.124   0.502  1.00  0.00     0.081 C 
ATOM     26  C   UNL     1      -6.316  -1.607   0.845  1.00  0.00     0.021 C 
ENDBRANCH  22  25
ENDBRANCH  21  22
ENDBRANCH  20  21
ENDBRANCH  18  20
ENDBRANCH   9  16
TORSDOF 10
