REMARK SMILES Cc1cccc(C)c1OCC(C)N
REMARK SMILES IDX 10 1 11 2 12 3 13 4 9 7 8 8 2 9 6 10 1 11 3 12 5 13 7 14
REMARK SMILES IDX 4 15
REMARK H PARENT 13 5 13 6
REMARK Flexibility Score: inf
ROOT
ATOM      1  C   UNL     1       1.372   1.043   0.088  1.00  0.00     0.247 C 
ENDROOT
BRANCH   1   2
ATOM      2  C   UNL     1       2.167  -0.048  -0.654  1.00  0.00     0.085 C 
ATOM      3  C   UNL     1       3.089  -0.810   0.302  1.00  0.00     0.028 C 
BRANCH   2   4
ATOM      4  N   UNL     1       2.963   0.533  -1.737  1.00  0.00    -0.325 NA
ATOM      5  H   UNL     1       2.315   0.943  -2.448  1.00  0.00     0.119 HD
ATOM      6  H   UNL     1       3.547   1.315  -1.359  1.00  0.00     0.119 HD
ENDBRANCH   2   4
ENDBRANCH   1   2
BRANCH   1   7
ATOM      7  O   UNL     1       0.419   0.459   0.980  1.00  0.00    -0.491 OA
BRANCH   7   8
ATOM      8  C   UNL     1      -0.873   0.089   0.581  1.00  0.00     0.125 A 
ATOM      9  C   UNL     1      -1.824   1.060   0.183  1.00  0.00    -0.009 A 
ATOM     10  C   UNL     1      -1.241  -1.274   0.611  1.00  0.00    -0.009 A 
ATOM     11  C   UNL     1      -1.533   2.534   0.252  1.00  0.00     0.048 C 
ATOM     12  C   UNL     1      -3.081   0.645  -0.284  1.00  0.00     0.007 A 
ATOM     13  C   UNL     1      -2.505  -1.663   0.141  1.00  0.00     0.007 A 
ATOM     14  C   UNL     1      -0.276  -2.324   1.084  1.00  0.00     0.048 C 
ATOM     15  C   UNL     1      -3.415  -0.708  -0.311  1.00  0.00     0.001 A 
ENDBRANCH   7   8
ENDBRANCH   1   7
TORSDOF 4
