REMARK SMILES C=CC[C@@H]1/C=C(\C)C[C@H](C)C[C@H](OC)[C@H]2O[C@@](O)(C(=O)C(=O)N3CCCC[C@H]3C(=O)O[C@H](/C(C)=C/[C@@H]3CC[C@@H](O)[C@H](OC)C3)[C@H](C)[C@@H](O)CC1=O)[C@H](C)C[C@@H]2OC
REMARK SMILES IDX 31 1 32 2 33 3 35 4 34 5 36 6 41 7 44 8 39 9 38 10 37 11
REMARK SMILES IDX 42 12 43 13 40 14 45 16 46 17 47 18 49 19 50 20 51 21 4 22
REMARK SMILES IDX 5 23 6 24 7 25 8 26 3 28 2 29 1 30 48 31 29 33 30 34 28 35
REMARK SMILES IDX 27 36 23 37 26 38 24 39 25 40 21 41 22 42 19 43 20 44 17 45
REMARK SMILES IDX 16 46 52 47 15 48 54 49 53 50 55 51 18 52 12 54 11 55 9 56
REMARK SMILES IDX 10 57 13 59 14 60 56 61 57 62
REMARK H PARENT 40 15 48 32 18 53
REMARK Flexibility Score: 50.00
ROOT
ATOM      1  O   UNL     1       2.284  -1.349   1.433  1.00  0.00    -0.456 OA
ENDROOT
BRANCH   1   2
ATOM      2  C   UNL     1       2.328  -0.418   0.343  1.00  0.00     0.207 C 
BRANCH   2   3
ATOM      3  C   UNL     1       3.694  -0.515  -0.362  1.00  0.00    -0.036 C 
ATOM      4  C   UNL     1       4.395  -1.655  -0.256  1.00  0.00    -0.021 C 
ATOM      5  C   UNL     1       4.192   0.594  -1.287  1.00  0.00     0.043 C 
BRANCH   4   6
ATOM      6  C   UNL     1       5.896  -1.737  -0.152  1.00  0.00     0.014 C 
ATOM      7  C   UNL     1       8.201  -1.528  -1.095  1.00  0.00     0.147 C 
ATOM      8  C   UNL     1       6.724  -1.138  -1.297  1.00  0.00     0.042 C 
ATOM      9  C   UNL     1       8.718  -0.973   0.249  1.00  0.00     0.143 C 
ATOM     10  C   UNL     1       7.822  -1.473   1.429  1.00  0.00     0.035 C 
ATOM     11  C   UNL     1       6.354  -1.142   1.194  1.00  0.00     0.010 C 
BRANCH   7  12
ATOM     12  O   UNL     1       8.975  -1.009  -2.170  1.00  0.00    -0.379 OA
ATOM     13  C   UNL     1       9.108  -1.989  -3.163  1.00  0.00     0.195 C 
ENDBRANCH   7  12
BRANCH   9  14
ATOM     14  O   UNL     1      10.072  -1.339   0.395  1.00  0.00    -0.390 OA
ATOM     15  H   UNL     1      10.163  -1.901   1.215  1.00  0.00     0.211 HD
ENDBRANCH   9  14
ENDBRANCH   4   6
ENDBRANCH   2   3
BRANCH   2  16
ATOM     16  C   UNL     1       2.075   1.045   0.840  1.00  0.00     0.060 C 
ATOM     17  C   UNL     1       1.873   1.242   2.351  1.00  0.00     0.015 C 
BRANCH  16  18
ATOM     18  C   UNL     1       0.975   1.725  -0.024  1.00  0.00     0.128 C 
BRANCH  18  19
ATOM     19  C   UNL     1       0.969   3.238   0.218  1.00  0.00     0.108 C 
BRANCH  19  20
ATOM     20  C   UNL     1       0.359   3.986  -0.915  1.00  0.00     0.142 C 
ATOM     21  O   UNL     1       0.722   3.734  -2.063  1.00  0.00    -0.299 OA
BRANCH  20  22
ATOM     22  C   UNL     1      -0.597   5.121  -0.675  1.00  0.00     0.082 C 
BRANCH  22  23
ATOM     23  C   UNL     1      -2.049   4.729  -0.901  1.00  0.00    -0.017 C 
ATOM     24  C   UNL     1      -2.929   4.096  -0.071  1.00  0.00    -0.076 C 
ATOM     25  C   UNL     1      -2.659   3.418   1.252  1.00  0.00     0.039 C 
BRANCH  24  26
ATOM     26  C   UNL     1      -4.395   4.118  -0.409  1.00  0.00     0.033 CG0
ATOM     27  G   UNL     1      -4.746   2.944  -1.372  1.00  0.00     0.000 G0
ENDBRANCH  24  26
ENDBRANCH  22  23
BRANCH  22  28
ATOM     28  C   UNL     1      -0.315   5.893   0.623  1.00  0.00     0.042 C 
BRANCH  28  29
ATOM     29  C   UNL     1      -1.057   7.198   0.624  1.00  0.00    -0.034 C 
ATOM     30  C   UNL     1      -0.531   8.306   0.102  1.00  0.00     0.004 C 
ENDBRANCH  28  29
ENDBRANCH  22  28
ENDBRANCH  20  22
ENDBRANCH  19  20
ENDBRANCH  18  19
BRANCH  18  31
ATOM     31  O   UNL     1      -0.299   1.135   0.124  1.00  0.00    -0.392 OA
ATOM     32  H   UNL     1      -0.476   1.023   1.087  1.00  0.00     0.210 HD
ENDBRANCH  18  31
ENDBRANCH  16  18
ENDBRANCH   2  16
ENDBRANCH   1   2
BRANCH   1  33
ATOM     33  C   UNL     1       1.164  -1.673   2.156  1.00  0.00     0.329 C 
ATOM     34  O   UNL     1       1.274  -1.582   3.428  1.00  0.00    -0.250 OA
BRANCH  33  35
ATOM     35  C   UNL     1      -0.087  -2.368   1.567  1.00  0.00     0.195 C 
ATOM     36  C   UNL     1      -0.641  -3.431   2.537  1.00  0.00     0.037 C 
ATOM     37  N   UNL     1       0.259  -3.077   0.286  1.00  0.00    -0.322 N 
ATOM     38  C   UNL     1       0.353  -4.606   2.704  1.00  0.00     0.005 C 
ATOM     39  C   UNL     1       1.193  -4.197   0.367  1.00  0.00     0.121 C 
ATOM     40  C   UNL     1       0.663  -5.248   1.340  1.00  0.00     0.022 C 
BRANCH  37  41
ATOM     41  C   UNL     1      -0.422  -2.764  -0.949  1.00  0.00     0.296 C 
ATOM     42  O   UNL     1       0.314  -2.349  -1.916  1.00  0.00    -0.265 OA
BRANCH  41  43
ATOM     43  C   UNL     1      -1.666  -3.408  -1.321  1.00  0.00     0.279 C 
ATOM     44  O   UNL     1      -1.541  -4.373  -2.164  1.00  0.00    -0.282 OA
BRANCH  43  45
ATOM     45  C   UNL     1      -3.106  -2.826  -1.149  1.00  0.00     0.239 C 
ATOM     46  O   UNL     1      -3.115  -1.380  -1.131  1.00  0.00    -0.334 OA
ATOM     47  C   UNL     1      -3.796  -3.397   0.171  1.00  0.00     0.057 C 
ATOM     48  C   UNL     1      -4.450  -0.967  -0.856  1.00  0.00     0.180 C 
ATOM     49  C   UNL     1      -4.108  -2.321   1.235  1.00  0.00     0.044 C 
ATOM     50  C   UNL     1      -5.102  -4.208  -0.133  1.00  0.00     0.014 C 
ATOM     51  C   UNL     1      -4.668  -1.006   0.664  1.00  0.00     0.150 C 
BRANCH  45  52
ATOM     52  O   UNL     1      -3.888  -3.211  -2.267  1.00  0.00    -0.359 OA
ATOM     53  H   UNL     1      -3.402  -2.971  -3.130  1.00  0.00     0.214 HD
ENDBRANCH  45  52
BRANCH  48  54
ATOM     54  C   UNL     1      -4.864   0.349  -1.573  1.00  0.00     0.149 C 
BRANCH  54  55
ATOM     55  C   UNL     1      -4.521   1.567  -0.723  1.00  0.00     0.038 C 
BRANCH  55  56
ATOM     56  C   UNL     1      -4.746   2.944  -1.372  1.00  0.00    -0.008 CG0
ATOM     57  C   UNL     1      -6.147   3.156  -1.977  1.00  0.00     0.008 C 
ATOM     58  G   UNL     1      -4.395   4.118  -0.409  1.00  0.00     0.000 G0
ENDBRANCH  55  56
ENDBRANCH  54  55
BRANCH  54  59
ATOM     59  O   UNL     1      -6.266   0.367  -1.798  1.00  0.00    -0.379 OA
ATOM     60  C   UNL     1      -6.628  -0.441  -2.892  1.00  0.00     0.195 C 
ENDBRANCH  54  59
ENDBRANCH  48  54
BRANCH  51  61
ATOM     61  O   UNL     1      -6.051  -0.875   0.923  1.00  0.00    -0.379 OA
ATOM     62  C   UNL     1      -6.249  -0.274   2.177  1.00  0.00     0.195 C 
ENDBRANCH  51  61
ENDBRANCH  43  45
ENDBRANCH  41  43
ENDBRANCH  37  41
ENDBRANCH  33  35
ENDBRANCH   1  33
TORSDOF 10
