REMARK SMILES CCC(=O)N(c1ccccc1)C1CCN(CCc2ccccc2)CC1
REMARK SMILES IDX 12 1 13 2 14 3 15 4 24 5 25 6 5 7 3 8 4 9 2 10 1 11 6 12
REMARK SMILES IDX 7 13 11 14 8 15 10 16 9 17 16 18 17 19 18 20 19 21 23 22
REMARK SMILES IDX 20 23 22 24 21 25
REMARK H PARENT
REMARK Flexibility Score: inf
ROOT
ATOM      1  C   UNL     1       1.320  -0.061  -0.118  1.00  0.00     0.093 C 
ATOM      2  C   UNL     1       0.877   1.419  -0.077  1.00  0.00     0.041 C 
ATOM      3  C   UNL     1      -0.587   1.595  -0.521  1.00  0.00     0.086 C 
ATOM      4  N   UNL     1      -1.381   0.397  -0.180  1.00  0.00    -0.303 NA
ATOM      5  C   UNL     1      -0.954  -0.778  -0.987  1.00  0.00     0.086 C 
ATOM      6  C   UNL     1       0.574  -0.836  -1.214  1.00  0.00     0.041 C 
ENDROOT
BRANCH   1   7
ATOM      7  N   UNL     1       2.787  -0.202  -0.253  1.00  0.00    -0.309 N 
BRANCH   7   8
ATOM      8  C   UNL     1       3.526   0.454  -1.309  1.00  0.00     0.226 C 
ATOM      9  O   UNL     1       2.967   0.714  -2.409  1.00  0.00    -0.275 OA
BRANCH   8  10
ATOM     10  C   UNL     1       4.961   0.869  -1.118  1.00  0.00     0.097 C 
ATOM     11  C   UNL     1       5.099   2.387  -1.202  1.00  0.00     0.014 C 
ENDBRANCH   8  10
ENDBRANCH   7   8
BRANCH   7  12
ATOM     12  C   UNL     1       3.470  -1.126   0.616  1.00  0.00     0.044 A 
ATOM     13  C   UNL     1       3.399  -0.975   2.011  1.00  0.00     0.026 A 
ATOM     14  C   UNL     1       4.225  -2.180   0.075  1.00  0.00     0.026 A 
ATOM     15  C   UNL     1       4.067  -1.871   2.851  1.00  0.00     0.002 A 
ATOM     16  C   UNL     1       4.893  -3.073   0.919  1.00  0.00     0.002 A 
ATOM     17  C   UNL     1       4.811  -2.921   2.305  1.00  0.00     0.000 A 
ENDBRANCH   7  12
ENDBRANCH   1   7
BRANCH   4  18
ATOM     18  C   UNL     1      -2.824   0.672  -0.349  1.00  0.00     0.089 C 
BRANCH  18  19
ATOM     19  C   UNL     1      -3.681  -0.407   0.327  1.00  0.00     0.051 C 
BRANCH  19  20
ATOM     20  C   UNL     1      -5.135  -0.016   0.310  1.00  0.00    -0.047 A 
ATOM     21  C   UNL     1      -5.945  -0.346  -0.789  1.00  0.00     0.004 A 
ATOM     22  C   UNL     1      -5.677   0.739   1.364  1.00  0.00     0.004 A 
ATOM     23  C   UNL     1      -7.284   0.055  -0.822  1.00  0.00     0.000 A 
ATOM     24  C   UNL     1      -7.017   1.139   1.327  1.00  0.00     0.000 A 
ATOM     25  C   UNL     1      -7.820   0.796   0.236  1.00  0.00     0.000 A 
ENDBRANCH  19  20
ENDBRANCH  18  19
ENDBRANCH   4  18
TORSDOF 7
