REMARK SMILES C=C1CC[C@H](O)C/C1=C/C=C1\CCC[C@]2(C)[C@@H]([C@H](C)/C=C/[C@H](C)C(C)C)CC[C@@H]12
REMARK SMILES IDX 18 1 19 2 20 3 21 4 22 5 23 6 24 7 25 8 26 9 17 10 27 11
REMARK SMILES IDX 15 12 28 13 29 14 14 15 16 16 11 17 13 18 12 19 10 20 9 21
REMARK SMILES IDX 8 22 7 23 2 24 5 25 3 26 1 27 4 28 6 29
REMARK H PARENT 6 30
REMARK Flexibility Score: inf
ROOT
ATOM      1  C   UNL     1      -2.768  -0.518  -1.210  1.00  0.00     0.012 C 
ATOM      2  C   UNL     1      -3.111  -0.867  -2.664  1.00  0.00     0.012 C 
ENDROOT
BRANCH   1   3
ATOM      3  C   UNL     1      -3.945   0.227  -0.618  1.00  0.00    -0.028 C 
ATOM      4  C   UNL     1      -4.548  -0.180   0.511  1.00  0.00    -0.028 C 
BRANCH   4   5
ATOM      5  C   UNL     1      -5.694   0.602   1.118  1.00  0.00     0.011 C 
ATOM      6  C   UNL     1      -5.860   0.218   2.598  1.00  0.00     0.012 C 
BRANCH   5   7
ATOM      7  C   UNL     1      -6.995   0.430   0.278  1.00  0.00    -0.011 C 
ATOM      8  C   UNL     1      -7.545  -1.006   0.293  1.00  0.00     0.008 C 
ATOM      9  C   UNL     1      -8.088   1.424   0.699  1.00  0.00     0.008 C 
ENDBRANCH   5   7
ENDBRANCH   4   5
ENDBRANCH   1   3
BRANCH   1  10
ATOM     10  C   UNL     1      -1.482   0.361  -1.084  1.00  0.00     0.002 C 
ATOM     11  C   UNL     1      -1.195   0.754   0.392  1.00  0.00     0.005 C 
ATOM     12  C   UNL     1      -0.133  -0.235  -1.583  1.00  0.00    -0.023 C 
ATOM     13  C   UNL     1       0.328   0.772   0.571  1.00  0.00     0.009 C 
ATOM     14  C   UNL     1       0.866   0.673  -0.850  1.00  0.00     0.021 C 
ATOM     15  C   UNL     1       0.141  -0.074  -3.103  1.00  0.00     0.008 C 
ATOM     16  C   UNL     1       0.016  -1.728  -1.153  1.00  0.00     0.012 C 
ATOM     17  C   UNL     1       2.296   0.256  -1.115  1.00  0.00    -0.067 C 
ATOM     18  C   UNL     1       1.595  -0.464  -3.462  1.00  0.00     0.005 C 
ATOM     19  C   UNL     1       2.664   0.236  -2.592  1.00  0.00     0.031 C 
ATOM     20  C   UNL     1       3.205   0.173  -0.122  1.00  0.00    -0.000 C 
BRANCH  20  21
ATOM     21  C   UNL     1       4.627  -0.189  -0.316  1.00  0.00     0.004 C 
ATOM     22  C   UNL     1       5.600   0.144   0.556  1.00  0.00    -0.043 C 
ATOM     23  C   UNL     1       6.980  -0.452   0.407  1.00  0.00     0.067 C 
ATOM     24  C   UNL     1       5.413   1.101   1.680  1.00  0.00    -0.052 C 
ATOM     25  C   UNL     1       7.534  -0.902   1.769  1.00  0.00     0.119 C 
ATOM     26  C   UNL     1       6.059   0.760   2.999  1.00  0.00     0.038 C 
ATOM     27  C   UNL     1       4.774   2.266   1.519  1.00  0.00     0.013 C 
ATOM     28  C   UNL     1       7.493   0.255   2.785  1.00  0.00     0.037 C 
BRANCH  25  29
ATOM     29  O   UNL     1       8.856  -1.342   1.603  1.00  0.00    -0.393 OA
ATOM     30  H   UNL     1       9.080  -1.884   2.404  1.00  0.00     0.210 HD
ENDBRANCH  25  29
ENDBRANCH  20  21
ENDBRANCH   1  10
TORSDOF 6
