REMARK SMILES CNC(=C[N+](=O)[O-])NCCSCc1csc(CN(C)C)n1
REMARK SMILES IDX 10 1 9 2 8 3 3 5 4 6 2 7 1 8 5 10 7 11 6 12 11 13 12 14
REMARK SMILES IDX 13 15 14 16 21 17 15 18 16 19 17 20 18 21 19 22 20 23
REMARK H PARENT 8 4 2 9
REMARK Flexibility Score: inf
ROOT
ATOM      1  C   UNL     1      -1.205  -1.576   0.192  1.00  0.00     0.091 C 
ENDROOT
BRANCH   1   2
ATOM      2  C   UNL     1      -2.100  -0.917  -0.858  1.00  0.00     0.125 C 
BRANCH   2   3
ATOM      3  N   UNL     1      -2.892   0.160  -0.264  1.00  0.00    -0.366 N 
ATOM      4  H   UNL     1      -2.631   0.511   0.685  1.00  0.00     0.162 HD
BRANCH   3   5
ATOM      5  C   UNL     1      -4.013   0.751  -0.948  1.00  0.00     0.171 C 
ATOM      6  C   UNL     1      -5.009   1.330  -0.245  1.00  0.00     0.424 C 
BRANCH   5   7
ATOM      7  N   UNL     1      -4.023   0.775  -2.391  1.00  0.00    -0.370 N 
ATOM      8  C   UNL     1      -5.177   1.164  -3.198  1.00  0.00     0.141 C 
ATOM      9  H   UNL     1      -3.175   0.455  -2.909  1.00  0.00     0.161 HD
ENDBRANCH   5   7
BRANCH   6  10
ATOM     10  N   UNL     1      -5.119   1.239   1.182  1.00  0.00     0.058 N 
ATOM     11  O   UNL     1      -4.747   0.089   1.841  1.00  0.00    -0.259 OA
ATOM     12  O   UNL     1      -5.805   2.084   1.790  1.00  0.00    -0.259 OA
ENDBRANCH   6  10
ENDBRANCH   3   5
ENDBRANCH   2   3
ENDBRANCH   1   2
BRANCH   1  13
ATOM     13  S   UNL     1      -0.281  -2.976  -0.538  1.00  0.00    -0.154 SA
BRANCH  13  14
ATOM     14  C   UNL     1       1.163  -2.013  -1.113  1.00  0.00     0.126 C 
BRANCH  14  15
ATOM     15  C   UNL     1       2.097  -1.742   0.024  1.00  0.00     0.062 A 
ATOM     16  C   UNL     1       2.884  -2.729   0.612  1.00  0.00     0.091 A 
ATOM     17  N   UNL     1       2.213  -0.504   0.577  1.00  0.00    -0.244 NA
ATOM     18  S   UNL     1       3.755  -2.015   1.861  1.00  0.00    -0.126 S 
ATOM     19  C   UNL     1       3.094  -0.490   1.601  1.00  0.00     0.107 A 
BRANCH  19  20
ATOM     20  C   UNL     1       3.430   0.744   2.392  1.00  0.00     0.151 C 
BRANCH  20  21
ATOM     21  N   UNL     1       4.485   1.577   1.772  1.00  0.00    -0.303 NA
ATOM     22  C   UNL     1       5.772   0.871   1.675  1.00  0.00     0.105 C 
ATOM     23  C   UNL     1       4.080   2.115   0.463  1.00  0.00     0.105 C 
ENDBRANCH  20  21
ENDBRANCH  19  20
ENDBRANCH  14  15
ENDBRANCH  13  14
ENDBRANCH   1  13
TORSDOF 10
