REMARK SMILES Cc1c(C)c2c(c(C)c1O)CC[C@@](C)(CCC[C@H](C)CCC[C@H](C)CCCC(C)C)O2
REMARK SMILES IDX 21 1 22 2 23 3 24 4 25 5 26 6 27 7 28 8 29 9 30 10 20 11
REMARK SMILES IDX 18 12 19 13 17 14 16 15 15 16 13 17 14 18 12 19 31 20 11 21
REMARK SMILES IDX 5 22 6 23 3 24 7 25 4 26 2 27 9 28 8 29 1 30 10 31
REMARK H PARENT 10 32
REMARK Flexibility Score: inf
ROOT
ATOM      1  C   UNL     1       2.187   2.576   0.256  1.00  0.00     0.001 C 
ENDROOT
BRANCH   1   2
ATOM      2  C   UNL     1       3.197   1.612   0.914  1.00  0.00     0.003 C 
BRANCH   2   3
ATOM      3  C   UNL     1       4.663   1.657   0.404  1.00  0.00    -0.014 C 
ATOM      4  C   UNL     1       5.226   3.086   0.355  1.00  0.00     0.007 C 
BRANCH   3   5
ATOM      5  C   UNL     1       4.863   0.917  -0.947  1.00  0.00     0.003 C 
BRANCH   5   6
ATOM      6  C   UNL     1       6.218   0.188  -1.034  1.00  0.00     0.001 C 
BRANCH   6   7
ATOM      7  C   UNL     1       6.237  -1.146  -0.251  1.00  0.00     0.003 C 
BRANCH   7   8
ATOM      8  C   UNL     1       6.099  -2.395  -1.152  1.00  0.00    -0.017 C 
ATOM      9  C   UNL     1       4.735  -2.455  -1.854  1.00  0.00     0.007 C 
ATOM     10  C   UNL     1       6.313  -3.668  -0.323  1.00  0.00     0.007 C 
ENDBRANCH   7   8
ENDBRANCH   6   7
ENDBRANCH   5   6
ENDBRANCH   3   5
ENDBRANCH   2   3
ENDBRANCH   1   2
BRANCH   1  11
ATOM     11  C   UNL     1       1.874   2.233  -1.209  1.00  0.00     0.003 C 
BRANCH  11  12
ATOM     12  C   UNL     1       0.663   3.013  -1.777  1.00  0.00    -0.014 C 
ATOM     13  C   UNL     1       0.550   2.776  -3.292  1.00  0.00     0.007 C 
BRANCH  12  14
ATOM     14  C   UNL     1      -0.688   2.725  -1.066  1.00  0.00     0.003 C 
BRANCH  14  15
ATOM     15  C   UNL     1      -1.015   1.227  -0.894  1.00  0.00     0.004 C 
BRANCH  15  16
ATOM     16  C   UNL     1      -2.454   0.983  -0.378  1.00  0.00     0.048 C 
BRANCH  16  17
ATOM     17  C   UNL     1      -2.609   0.718   1.151  1.00  0.00     0.107 C 
ATOM     18  C   UNL     1      -2.097   1.915   1.966  1.00  0.00     0.056 C 
ATOM     19  C   UNL     1      -1.902  -0.572   1.633  1.00  0.00     0.053 C 
ATOM     20  O   UNL     1      -4.004   0.580   1.427  1.00  0.00    -0.487 OA
ATOM     21  C   UNL     1      -2.509  -1.823   0.990  1.00  0.00     0.044 C 
ATOM     22  C   UNL     1      -4.719  -0.615   1.246  1.00  0.00     0.127 A 
ATOM     23  C   UNL     1      -4.027  -1.824   1.023  1.00  0.00     0.001 A 
ATOM     24  C   UNL     1      -6.127  -0.593   1.309  1.00  0.00    -0.002 A 
ATOM     25  C   UNL     1      -4.755  -3.011   0.780  1.00  0.00    -0.002 A 
ATOM     26  C   UNL     1      -6.838   0.721   1.548  1.00  0.00     0.049 C 
ATOM     27  C   UNL     1      -6.854  -1.803   1.169  1.00  0.00    -0.002 A 
ATOM     28  C   UNL     1      -6.161  -3.002   0.871  1.00  0.00     0.122 A 
ATOM     29  C   UNL     1      -4.031  -4.307   0.483  1.00  0.00     0.049 C 
ATOM     30  C   UNL     1      -8.362  -1.838   1.303  1.00  0.00     0.049 C 
BRANCH  28  31
ATOM     31  O   UNL     1      -6.851  -4.203   0.658  1.00  0.00    -0.507 OA
ATOM     32  H   UNL     1      -7.859  -4.283   0.647  1.00  0.00     0.293 HD
ENDBRANCH  28  31
ENDBRANCH  16  17
ENDBRANCH  15  16
ENDBRANCH  14  15
ENDBRANCH  12  14
ENDBRANCH  11  12
ENDBRANCH   1  11
TORSDOF 13
