REMARK SMILES CNC[C@H](O)c1cccc(O)c1
REMARK SMILES IDX 4 1 3 2 2 3 1 4 5 6 6 8 12 9 7 10 10 11 8 12 9 13 11 14
REMARK H PARENT 2 5 5 7 11 15
REMARK Flexibility Score: inf
ROOT
ATOM      1  C   UNL     1       0.767  -0.725  -0.429  1.00  0.00     0.158 C 
ENDROOT
BRANCH   1   2
ATOM      2  C   UNL     1       1.633   0.298   0.334  1.00  0.00     0.117 C 
BRANCH   2   3
ATOM      3  N   UNL     1       3.063   0.011   0.134  1.00  0.00    -0.317 NA
ATOM      4  C   UNL     1       3.654   0.886  -0.882  1.00  0.00     0.101 C 
ATOM      5  H   UNL     1       3.565   0.203   1.033  1.00  0.00     0.122 HD
ENDBRANCH   2   3
ENDBRANCH   1   2
BRANCH   1   6
ATOM      6  O   UNL     1       0.915  -0.596  -1.821  1.00  0.00    -0.387 OA
ATOM      7  H   UNL     1       0.680   0.336  -2.070  1.00  0.00     0.211 HD
ENDBRANCH   1   6
BRANCH   1   8
ATOM      8  C   UNL     1      -0.695  -0.621  -0.037  1.00  0.00    -0.015 A 
ATOM      9  C   UNL     1      -1.424   0.562  -0.263  1.00  0.00     0.052 A 
ATOM     10  C   UNL     1      -1.345  -1.717   0.560  1.00  0.00     0.007 A 
ATOM     11  C   UNL     1      -2.773   0.648   0.102  1.00  0.00     0.115 A 
ATOM     12  C   UNL     1      -2.691  -1.630   0.924  1.00  0.00     0.004 A 
ATOM     13  C   UNL     1      -3.405  -0.452   0.696  1.00  0.00     0.046 A 
BRANCH  11  14
ATOM     14  O   UNL     1      -3.474   1.829  -0.130  1.00  0.00    -0.508 OA
ATOM     15  H   UNL     1      -4.450   1.924   0.122  1.00  0.00     0.293 HD
ENDBRANCH  11  14
ENDBRANCH   1   8
TORSDOF 5
