REMARK SMILES NC(=O)CS(=O)C(c1ccccc1)c1ccccc1
REMARK SMILES IDX 5 1 6 2 4 3 2 4 1 5 3 8 7 9 8 10 9 11 13 12 10 13 12 14
REMARK SMILES IDX 11 15 14 16 15 17 19 18 16 19 18 20 17 21
REMARK H PARENT 1 6 1 7
REMARK Flexibility Score: inf
ROOT
ATOM      1  S   UNL     1       0.832   0.306   1.720  1.00  0.00     0.043 S 
ATOM      2  O   UNL     1       1.882   1.406   1.811  1.00  0.00    -0.258 OA
ENDROOT
BRANCH   1   3
ATOM      3  C   UNL     1       1.750  -1.225   2.030  1.00  0.00     0.205 C 
BRANCH   3   4
ATOM      4  C   UNL     1       2.915  -1.366   1.098  1.00  0.00     0.230 C 
ATOM      5  N   UNL     1       4.148  -0.704   1.376  1.00  0.00    -0.369 N 
ATOM      6  H   UNL     1       4.261  -0.128   2.240  1.00  0.00     0.159 HD
ATOM      7  H   UNL     1       4.953  -0.790   0.717  1.00  0.00     0.159 HD
ATOM      8  O   UNL     1       2.799  -2.054   0.049  1.00  0.00    -0.274 OA
ENDBRANCH   3   4
ENDBRANCH   1   3
BRANCH   1   9
ATOM      9  C   UNL     1       0.356   0.289  -0.037  1.00  0.00     0.140 C 
BRANCH   9  10
ATOM     10  C   UNL     1      -0.471  -0.930  -0.389  1.00  0.00    -0.028 A 
ATOM     11  C   UNL     1      -1.559  -1.336   0.409  1.00  0.00     0.005 A 
ATOM     12  C   UNL     1      -0.187  -1.646  -1.566  1.00  0.00     0.005 A 
ATOM     13  C   UNL     1      -2.325  -2.448   0.049  1.00  0.00     0.000 A 
ATOM     14  C   UNL     1      -0.957  -2.758  -1.922  1.00  0.00     0.000 A 
ATOM     15  C   UNL     1      -2.023  -3.160  -1.114  1.00  0.00     0.000 A 
ENDBRANCH   9  10
BRANCH   9  16
ATOM     16  C   UNL     1      -0.377   1.555  -0.432  1.00  0.00    -0.028 A 
ATOM     17  C   UNL     1      -0.059   2.192  -1.646  1.00  0.00     0.005 A 
ATOM     18  C   UNL     1      -1.422   2.077   0.356  1.00  0.00     0.005 A 
ATOM     19  C   UNL     1      -0.750   3.339  -2.047  1.00  0.00     0.000 A 
ATOM     20  C   UNL     1      -2.109   3.225  -0.050  1.00  0.00     0.000 A 
ATOM     21  C   UNL     1      -1.773   3.856  -1.249  1.00  0.00     0.000 A 
ENDBRANCH   9  16
ENDBRANCH   1   9
TORSDOF 5
