REMARK SMILES Cc1cccc([C@H](C)c2c[nH]cn2)c1C
REMARK SMILES IDX 8 1 7 2 9 3 10 4 13 5 11 6 12 7 6 9 14 10 5 11 15 12 2 13
REMARK SMILES IDX 4 14 1 15 3 16
REMARK H PARENT 11 8
REMARK Flexibility Score: inf
ROOT
ATOM      1  C   UNL     1       1.267  -2.212   0.771  1.00  0.00     0.019 C 
ATOM      2  C   UNL     1       0.986  -1.288  -0.424  1.00  0.00     0.067 C 
ENDROOT
BRANCH   2   3
ATOM      3  C   UNL     1       1.952  -0.134  -0.563  1.00  0.00     0.065 A 
ATOM      4  C   UNL     1       3.083   0.113   0.194  1.00  0.00     0.108 A 
ATOM      5  N   UNL     1       1.850   0.800  -1.532  1.00  0.00    -0.241 NA
ATOM      6  N   UNL     1       3.675   1.213  -0.293  1.00  0.00    -0.351 N 
ATOM      7  C   UNL     1       2.912   1.606  -1.330  1.00  0.00     0.196 A 
ATOM      8  H   UNL     1       4.548   1.667   0.056  1.00  0.00     0.167 HD
ENDBRANCH   2   3
BRANCH   2   9
ATOM      9  C   UNL     1      -0.476  -0.842  -0.443  1.00  0.00    -0.036 A 
ATOM     10  C   UNL     1      -1.010   0.227   0.346  1.00  0.00    -0.044 A 
ATOM     11  C   UNL     1      -1.349  -1.576  -1.270  1.00  0.00     0.005 A 
ATOM     12  C   UNL     1      -0.142   1.042   1.284  1.00  0.00     0.045 C 
ATOM     13  C   UNL     1      -2.380   0.584   0.189  1.00  0.00    -0.048 A 
ATOM     14  C   UNL     1      -2.695  -1.248  -1.368  1.00  0.00     0.001 A 
ATOM     15  C   UNL     1      -2.991   1.748   0.930  1.00  0.00     0.044 C 
ATOM     16  C   UNL     1      -3.207  -0.174  -0.651  1.00  0.00     0.004 A 
ENDBRANCH   2   9
TORSDOF 2
