REMARK SMILES COc1ccc(-c2ccc3cc(C(=O)O)ccc3c2)cc1C12CC3CC(CC(C3)C1)C2
REMARK SMILES IDX 7 1 19 2 18 3 10 4 9 5 8 6 11 7 12 8 16 9 17 10 6 11 3 12
REMARK SMILES IDX 21 13 4 14 20 15 5 16 2 17 1 18 22 19 31 20 30 21 23 22
REMARK SMILES IDX 26 23 28 24 24 25 25 26 27 27 29 28 13 29 14 30 15 31
REMARK H PARENT 15 32
REMARK Flexibility Score: inf
ROOT
ATOM      1  C   UNL     1       2.473  -1.005  -0.451  1.00  0.00    -0.018 A 
ATOM      2  C   UNL     1       2.951   0.191   0.116  1.00  0.00     0.017 A 
ATOM      3  C   UNL     1       4.251   0.641  -0.161  1.00  0.00    -0.018 A 
ATOM      4  C   UNL     1       5.088  -0.112  -1.015  1.00  0.00    -0.018 A 
ATOM      5  C   UNL     1       4.611  -1.304  -1.577  1.00  0.00     0.009 A 
ATOM      6  C   UNL     1       3.316  -1.746  -1.297  1.00  0.00     0.009 A 
ATOM      7  C   UNL     1       6.388   0.339  -1.292  1.00  0.00     0.024 A 
ATOM      8  C   UNL     1       6.866   1.534  -0.726  1.00  0.00     0.060 A 
ATOM      9  C   UNL     1       6.024   2.274   0.123  1.00  0.00     0.016 A 
ATOM     10  C   UNL     1       4.729   1.832   0.403  1.00  0.00     0.009 A 
ENDROOT
BRANCH   1  11
ATOM     11  C   UNL     1       1.096  -1.479  -0.157  1.00  0.00    -0.018 A 
ATOM     12  C   UNL     1      -1.518  -2.383   0.409  1.00  0.00     0.122 A 
ATOM     13  C   UNL     1      -1.309  -0.999   0.132  1.00  0.00     0.001 A 
ATOM     14  C   UNL     1      -0.427  -3.274   0.394  1.00  0.00     0.047 A 
ATOM     15  C   UNL     1       0.018  -0.579  -0.151  1.00  0.00     0.016 A 
ATOM     16  C   UNL     1       0.859  -2.827   0.115  1.00  0.00     0.012 A 
BRANCH  12  17
ATOM     17  O   UNL     1      -2.810  -2.854   0.696  1.00  0.00    -0.496 OA
ATOM     18  C   UNL     1      -3.147  -4.207   0.987  1.00  0.00     0.278 C 
ENDBRANCH  12  17
BRANCH  13  19
ATOM     19  C   UNL     1      -2.489   0.016   0.139  1.00  0.00    -0.000 C 
ATOM     20  C   UNL     1      -2.038   1.481  -0.191  1.00  0.00     0.015 C 
ATOM     21  C   UNL     1      -3.553  -0.383  -0.933  1.00  0.00     0.015 C 
ATOM     22  C   UNL     1      -3.158   0.055   1.549  1.00  0.00     0.015 C 
ATOM     23  C   UNL     1      -3.235   2.456  -0.172  1.00  0.00    -0.010 C 
ATOM     24  C   UNL     1      -4.753   0.589  -0.900  1.00  0.00    -0.010 C 
ATOM     25  C   UNL     1      -4.363   1.022   1.557  1.00  0.00    -0.010 C 
ATOM     26  C   UNL     1      -3.882   2.448   1.226  1.00  0.00     0.007 C 
ATOM     27  C   UNL     1      -4.271   2.016  -1.225  1.00  0.00     0.007 C 
ATOM     28  C   UNL     1      -5.397   0.567   0.504  1.00  0.00     0.007 C 
ENDBRANCH  13  19
ENDBRANCH   1  11
BRANCH   8  29
ATOM     29  C   UNL     1       8.238   2.004  -1.022  1.00  0.00     0.335 C 
ATOM     30  O   UNL     1       8.670   3.075  -0.516  1.00  0.00    -0.246 OA
BRANCH  29  31
ATOM     31  O   UNL     1       9.067   1.266  -1.864  1.00  0.00    -0.478 OA
ATOM     32  H   UNL     1      10.007   1.579  -2.073  1.00  0.00     0.297 HD
ENDBRANCH  29  31
ENDBRANCH   8  29
TORSDOF 5
