REMARK SMILES CC(=O)O[C@]1(C(C)=O)CC[C@H]2[C@@H]3C[C@H](C)C4=CC(=O)CC[C@]4(C)[C@H]3CC[C@@]21C
REMARK SMILES IDX 11 1 10 2 9 3 5 4 27 5 28 6 26 7 25 8 24 9 12 10 13 11 14 12
REMARK SMILES IDX 15 13 16 14 17 15 18 16 19 17 20 18 21 19 22 20 23 21 4 22
REMARK SMILES IDX 2 23 1 24 3 25 6 26 7 27 8 28
REMARK H PARENT
REMARK Flexibility Score: inf
ROOT
ATOM      1  C   UNL     1      -0.690  -0.396  -1.006  1.00  0.00     0.003 C 
ATOM      2  C   UNL     1      -1.192  -0.578  -2.432  1.00  0.00     0.009 C 
ATOM      3  C   UNL     1      -2.686  -0.913  -2.273  1.00  0.00     0.058 C 
ATOM      4  C   UNL     1      -3.031  -0.792  -0.760  1.00  0.00     0.175 C 
ATOM      5  C   UNL     1      -1.902   0.177  -0.250  1.00  0.00     0.018 C 
ATOM      6  C   UNL     1      -2.220   1.660  -0.660  1.00  0.00     0.016 C 
ATOM      7  C   UNL     1      -1.570   0.124   1.261  1.00  0.00     0.012 C 
ATOM      8  C   UNL     1      -0.282   0.914   1.580  1.00  0.00     0.005 C 
ATOM      9  C   UNL     1       0.942   0.418   0.748  1.00  0.00     0.002 C 
ATOM     10  C   UNL     1       0.625   0.392  -0.782  1.00  0.00    -0.003 C 
ATOM     11  C   UNL     1       1.787  -0.271  -1.537  1.00  0.00     0.012 C 
ATOM     12  C   UNL     1       3.094   0.509  -1.338  1.00  0.00     0.013 C 
ATOM     13  C   UNL     1       4.197  -0.139  -2.196  1.00  0.00     0.012 C 
ATOM     14  C   UNL     1       3.411   0.638   0.158  1.00  0.00    -0.058 C 
ATOM     15  C   UNL     1       4.675   0.490   0.618  1.00  0.00     0.047 C 
ATOM     16  C   UNL     1       5.048   0.756   2.013  1.00  0.00     0.155 C 
ATOM     17  O   UNL     1       6.233   0.558   2.391  1.00  0.00    -0.295 OA
ATOM     18  C   UNL     1       4.057   1.327   2.967  1.00  0.00     0.081 C 
ATOM     19  C   UNL     1       2.646   0.884   2.584  1.00  0.00     0.019 C 
ATOM     20  C   UNL     1       2.293   1.163   1.085  1.00  0.00    -0.007 C 
ATOM     21  C   UNL     1       2.167   2.694   0.872  1.00  0.00     0.016 C 
ENDROOT
BRANCH   4  22
ATOM     22  O   UNL     1      -2.876  -2.110  -0.198  1.00  0.00    -0.451 OA
BRANCH  22  23
ATOM     23  C   UNL     1      -3.333  -2.553   1.054  1.00  0.00     0.303 C 
ATOM     24  C   UNL     1      -2.927  -3.906   1.531  1.00  0.00     0.139 C 
ATOM     25  O   UNL     1      -4.034  -1.814   1.797  1.00  0.00    -0.253 OA
ENDBRANCH  22  23
ENDBRANCH   4  22
BRANCH   4  26
ATOM     26  C   UNL     1      -4.476  -0.322  -0.567  1.00  0.00     0.173 C 
ATOM     27  C   UNL     1      -5.611  -0.998  -1.278  1.00  0.00     0.092 C 
ATOM     28  O   UNL     1      -4.748   0.524   0.269  1.00  0.00    -0.295 OA
ENDBRANCH   4  26
TORSDOF 3
