REMARK SMILES COc1ccc(C(Cl)=C(c2ccc(OC)cc2)c2ccc(OC)cc2)cc1
REMARK SMILES IDX 7 1 8 2 9 3 6 4 3 5 4 6 27 7 5 8 26 9 2 10 1 11 10 12 11 13
REMARK SMILES IDX 17 14 12 15 16 16 13 17 14 18 15 19 18 20 19 21 25 22 20 23
REMARK SMILES IDX 24 24 21 25 22 26 23 27
REMARK H PARENT
REMARK Flexibility Score: inf
ROOT
ATOM      1  C   UNL     1       1.229   1.401   0.068  1.00  0.00     0.056 C 
ATOM      2  Cl  UNL     1       1.653   3.109   0.225  1.00  0.00    -0.083 Cl
ATOM      3  C   UNL     1      -0.044   1.022  -0.213  1.00  0.00     0.008 C 
ENDROOT
BRANCH   1   4
ATOM      4  C   UNL     1       2.325   0.426   0.277  1.00  0.00    -0.006 A 
ATOM      5  C   UNL     1       4.422  -1.415   0.679  1.00  0.00     0.118 A 
ATOM      6  C   UNL     1       3.621  -1.492  -0.466  1.00  0.00     0.047 A 
ATOM      7  C   UNL     1       4.175  -0.399   1.622  1.00  0.00     0.047 A 
ATOM      8  C   UNL     1       2.585  -0.578  -0.671  1.00  0.00     0.013 A 
ATOM      9  C   UNL     1       3.137   0.516   1.418  1.00  0.00     0.013 A 
BRANCH   5  10
ATOM     10  O   UNL     1       5.448  -2.358   0.840  1.00  0.00    -0.497 OA
ATOM     11  C   UNL     1       6.335  -2.398   1.953  1.00  0.00     0.278 C 
ENDBRANCH   5  10
ENDBRANCH   1   4
BRANCH   3  12
ATOM     12  C   UNL     1      -0.476  -0.398  -0.135  1.00  0.00    -0.016 A 
ATOM     13  C   UNL     1      -1.155  -0.985  -1.214  1.00  0.00     0.012 A 
ATOM     14  C   UNL     1      -0.250  -1.156   1.026  1.00  0.00     0.012 A 
ATOM     15  C   UNL     1      -1.575  -2.316  -1.146  1.00  0.00     0.047 A 
ATOM     16  C   UNL     1      -0.669  -2.487   1.092  1.00  0.00     0.047 A 
ATOM     17  C   UNL     1      -1.331  -3.080   0.011  1.00  0.00     0.118 A 
BRANCH  17  18
ATOM     18  O   UNL     1      -1.729  -4.420   0.127  1.00  0.00    -0.497 OA
ATOM     19  C   UNL     1      -2.408  -5.147  -0.892  1.00  0.00     0.278 C 
ENDBRANCH  17  18
ENDBRANCH   3  12
BRANCH   3  20
ATOM     20  C   UNL     1      -1.078   2.023  -0.572  1.00  0.00    -0.016 A 
ATOM     21  C   UNL     1      -2.271   2.095   0.164  1.00  0.00     0.012 A 
ATOM     22  C   UNL     1      -0.907   2.864  -1.683  1.00  0.00     0.012 A 
ATOM     23  C   UNL     1      -3.265   3.012  -0.188  1.00  0.00     0.047 A 
ATOM     24  C   UNL     1      -1.901   3.781  -2.034  1.00  0.00     0.047 A 
ATOM     25  C   UNL     1      -3.085   3.866  -1.293  1.00  0.00     0.118 A 
BRANCH  25  26
ATOM     26  O   UNL     1      -4.052   4.803  -1.686  1.00  0.00    -0.497 OA
ATOM     27  C   UNL     1      -5.299   4.996  -1.026  1.00  0.00     0.278 C 
ENDBRANCH  25  26
ENDBRANCH   3  20
TORSDOF 6
