REMARK SMILES Cc1nc(=O)c2cc(CN(C)c3ccc(C(=O)N[C@@H](CCC(=O)O)C(=O)O)s3)ccc2[nH]1
REMARK SMILES IDX 16 1 17 2 18 3 15 5 12 6 13 7 28 8 14 9 10 10 11 11 9 12
REMARK SMILES IDX 8 13 7 14 29 15 6 16 30 17 31 18 4 19 32 20 3 21 5 22 2 23
REMARK SMILES IDX 1 25 19 26 20 27 21 28 22 29 23 30 24 31 25 33 26 34 27 35
REMARK H PARENT 18 4 32 24 24 32 27 36
REMARK Flexibility Score: inf
ROOT
ATOM      1  C   UNL     1       3.254   0.642   0.800  1.00  0.00     0.262 C 
ATOM      2  O   UNL     1       3.981   1.166   1.686  1.00  0.00    -0.268 OA
ATOM      3  N   UNL     1       3.666  -0.570   0.142  1.00  0.00    -0.338 N 
ATOM      4  H   UNL     1       3.039  -0.979  -0.587  1.00  0.00     0.164 HD
ENDROOT
BRANCH   1   5
ATOM      5  C   UNL     1       1.981   1.295   0.442  1.00  0.00     0.094 A 
ATOM      6  C   UNL     1      -0.235   1.999  -0.507  1.00  0.00     0.092 A 
ATOM      7  C   UNL     1       0.261   2.879   0.455  1.00  0.00     0.039 A 
ATOM      8  S   UNL     1       0.870   0.739  -0.694  1.00  0.00    -0.113 S 
ATOM      9  C   UNL     1       1.496   2.482   0.984  1.00  0.00     0.028 A 
BRANCH   6  10
ATOM     10  N   UNL     1      -1.478   2.149  -1.230  1.00  0.00    -0.362 N 
ATOM     11  C   UNL     1      -2.303   3.340  -1.014  1.00  0.00     0.145 C 
BRANCH  10  12
ATOM     12  C   UNL     1      -1.982   1.094  -2.118  1.00  0.00     0.152 C 
BRANCH  12  13
ATOM     13  C   UNL     1      -3.076   0.318  -1.437  1.00  0.00    -0.028 A 
ATOM     14  C   UNL     1      -4.400   0.393  -1.902  1.00  0.00     0.021 A 
ATOM     15  C   UNL     1      -2.785  -0.476  -0.315  1.00  0.00     0.008 A 
ATOM     16  C   UNL     1      -5.425  -0.317  -1.251  1.00  0.00     0.066 A 
ATOM     17  C   UNL     1      -3.799  -1.176   0.342  1.00  0.00     0.027 A 
ATOM     18  C   UNL     1      -5.122  -1.103  -0.118  1.00  0.00     0.052 A 
ATOM     19  C   UNL     1      -6.760  -0.271  -1.684  1.00  0.00     0.280 A 
ATOM     20  N   UNL     1      -6.115  -1.784   0.521  1.00  0.00    -0.343 N 
ATOM     21  N   UNL     1      -7.709  -0.971  -1.014  1.00  0.00    -0.196 NA
ATOM     22  O   UNL     1      -7.093   0.416  -2.689  1.00  0.00    -0.267 OA
ATOM     23  C   UNL     1      -7.400  -1.728   0.073  1.00  0.00     0.107 A 
ATOM     24  H   UNL     1      -5.894  -2.357   1.367  1.00  0.00     0.168 HD
ATOM     25  C   UNL     1      -8.483  -2.466   0.794  1.00  0.00     0.087 C 
ENDBRANCH  12  13
ENDBRANCH  10  12
ENDBRANCH   6  10
ENDBRANCH   1   5
BRANCH   3  26
ATOM     26  C   UNL     1       4.928  -1.281   0.389  1.00  0.00     0.192 C 
BRANCH  26  27
ATOM     27  C   UNL     1       6.147  -0.341   0.281  1.00  0.00     0.049 C 
BRANCH  27  28
ATOM     28  C   UNL     1       7.445  -1.112   0.004  1.00  0.00     0.125 C 
BRANCH  28  29
ATOM     29  C   UNL     1       8.611  -0.175  -0.050  1.00  0.00     0.303 C 
ATOM     30  O   UNL     1       8.776   0.571  -1.051  1.00  0.00    -0.252 OA
BRANCH  29  31
ATOM     31  O   UNL     1       9.492  -0.104   1.026  1.00  0.00    -0.481 OA
ATOM     32  H   UNL     1      10.274   0.539   1.015  1.00  0.00     0.296 HD
ENDBRANCH  29  31
ENDBRANCH  28  29
ENDBRANCH  27  28
ENDBRANCH  26  27
BRANCH  26  33
ATOM     33  C   UNL     1       4.887  -1.995   1.714  1.00  0.00     0.326 C 
ATOM     34  O   UNL     1       5.231  -3.206   1.782  1.00  0.00    -0.250 OA
BRANCH  33  35
ATOM     35  O   UNL     1       4.505  -1.326   2.869  1.00  0.00    -0.480 OA
ATOM     36  H   UNL     1       4.488  -1.796   3.765  1.00  0.00     0.296 HD
ENDBRANCH  33  35
ENDBRANCH  26  33
ENDBRANCH   3  26
TORSDOF 11
