REMARK SMILES CC1(C)S[C@@H]2[C@H](NC(=O)[C@H](N)c3ccccc3)C(=O)N2[C@H]1C(=O)O
REMARK SMILES IDX 5 1 4 2 2 3 1 4 3 5 21 6 20 7 18 8 19 9 6 10 7 11 8 12 9 14
REMARK SMILES IDX 10 15 11 16 12 19 13 20 17 21 14 22 16 23 15 24 22 25 23 26
REMARK SMILES IDX 24 27
REMARK H PARENT 7 13 11 17 11 18 24 28
REMARK Flexibility Score: inf
ROOT
ATOM      1  C   UNL     1      -0.919  -0.093   2.116  1.00  0.00     0.176 C 
ATOM      2  S   UNL     1      -0.232   1.050   0.858  1.00  0.00    -0.125 SA
ATOM      3  C   UNL     1      -1.807   1.110  -0.123  1.00  0.00     0.044 C 
ATOM      4  C   UNL     1      -1.597   0.256  -1.386  1.00  0.00     0.026 C 
ATOM      5  C   UNL     1      -2.074   2.565  -0.553  1.00  0.00     0.026 C 
ATOM      6  C   UNL     1      -2.950   0.486   0.742  1.00  0.00     0.211 C 
ATOM      7  N   UNL     1      -2.255  -0.359   1.677  1.00  0.00    -0.311 N 
ATOM      8  C   UNL     1      -1.942  -1.807   1.698  1.00  0.00     0.250 C 
ATOM      9  O   UNL     1      -2.578  -2.859   1.431  1.00  0.00    -0.272 OA
ATOM     10  C   UNL     1      -0.533  -1.488   2.091  1.00  0.00     0.205 C 
ENDROOT
BRANCH  10  11
ATOM     11  N   UNL     1       0.422  -1.841   1.037  1.00  0.00    -0.340 N 
ATOM     12  C   UNL     1       1.824  -1.577   1.171  1.00  0.00     0.242 C 
ATOM     13  H   UNL     1       0.087  -2.339   0.181  1.00  0.00     0.164 HD
ATOM     14  O   UNL     1       2.270  -1.049   2.227  1.00  0.00    -0.273 OA
BRANCH  12  15
ATOM     15  C   UNL     1       2.749  -1.860   0.016  1.00  0.00     0.172 C 
BRANCH  15  16
ATOM     16  N   UNL     1       4.145  -1.896   0.458  1.00  0.00    -0.316 NA
ATOM     17  H   UNL     1       4.256  -2.689   1.132  1.00  0.00     0.119 HD
ATOM     18  H   UNL     1       4.743  -2.134  -0.368  1.00  0.00     0.119 HD
ENDBRANCH  15  16
BRANCH  15  19
ATOM     19  C   UNL     1       2.560  -0.800  -1.045  1.00  0.00    -0.022 A 
ATOM     20  C   UNL     1       2.963   0.528  -0.810  1.00  0.00     0.006 A 
ATOM     21  C   UNL     1       1.939  -1.120  -2.265  1.00  0.00     0.006 A 
ATOM     22  C   UNL     1       2.753   1.512  -1.781  1.00  0.00     0.000 A 
ATOM     23  C   UNL     1       1.739  -0.134  -3.236  1.00  0.00     0.000 A 
ATOM     24  C   UNL     1       2.143   1.181  -2.994  1.00  0.00     0.000 A 
ENDBRANCH  15  19
ENDBRANCH  12  15
ENDBRANCH  10  11
BRANCH   6  25
ATOM     25  C   UNL     1      -3.765   1.492   1.510  1.00  0.00     0.327 C 
ATOM     26  O   UNL     1      -4.935   1.772   1.133  1.00  0.00    -0.250 OA
BRANCH  25  27
ATOM     27  O   UNL     1      -3.221   2.141   2.615  1.00  0.00    -0.480 OA
ATOM     28  H   UNL     1      -3.756   2.830   3.130  1.00  0.00     0.296 HD
ENDBRANCH  25  27
ENDBRANCH   6  25
TORSDOF 6
