REMARK SMILES CC[C@]1(O)C[C@@H]2C[N@@](CCc3c([nH]c4ccccc34)[C@@](C(=O)OC)(c3cc4c(cc3OC)N(C=O)[C@H]3[C@@](O)(C(=O)OC)[C@H](OC(C)=O)[C@]5(CC)C=CCN6CC[C@]43[C@@H]65)C2)C1
REMARK SMILES IDX 20 1 25 2 58 3 54 4 57 5 48 6 55 7 53 8 56 9 27 10 36 11
REMARK SMILES IDX 43 12 51 13 52 14 28 15 26 16 33 17 37 18 29 19 30 20 49 21
REMARK SMILES IDX 50 22 44 23 45 24 46 25 47 26 34 27 35 28 38 29 39 31 40 32
REMARK SMILES IDX 41 33 42 34 31 35 32 36 59 37 6 38 7 39 5 40 8 41 3 42 60 43
REMARK SMILES IDX 9 44 4 46 2 48 1 49 21 50 22 51 23 52 24 53 12 54 11 55
REMARK SMILES IDX 13 56 19 57 14 58 18 60 15 61 17 62 16 63 10 64
REMARK H PARENT 38 30 4 47 13 59
REMARK Flexibility Score: 100.00
ROOT
ATOM      1  C   UNL     1       2.004  -0.700  -0.211  1.00  0.00     0.137 C 
ENDROOT
BRANCH   1   2
ATOM      2  C   UNL     1       0.693  -0.982   0.613  1.00  0.00     0.018 A 
ATOM      3  C   UNL     1      -3.475   0.391  -0.619  1.00  0.00     0.083 C 
ATOM      4  N   UNL     1      -3.413  -0.310  -1.950  1.00  0.00    -0.295 NA
ATOM      5  C   UNL     1      -3.202  -0.715   0.440  1.00  0.00     0.040 C 
ATOM      6  C   UNL     1      -4.802   1.244  -0.364  1.00  0.00     0.045 C 
ATOM      7  C   UNL     1      -3.301  -1.760  -1.699  1.00  0.00     0.086 C 
ATOM      8  C   UNL     1      -4.509  -0.032  -2.906  1.00  0.00     0.112 C 
ATOM      9  C   UNL     1      -3.653  -1.995  -0.253  1.00  0.00     0.031 C 
ATOM     10  C   UNL     1      -1.745  -0.871   0.827  1.00  0.00    -0.013 A 
ATOM     11  C   UNL     1      -3.880  -0.568   1.838  1.00  0.00     0.150 C 
ATOM     12  C   UNL     1      -5.085   1.551   1.188  1.00  0.00     0.233 C 
ATOM     13  C   UNL     1      -5.970   0.492  -1.018  1.00  0.00    -0.018 C 
ATOM     14  C   UNL     1      -5.836  -0.069  -2.220  1.00  0.00    -0.015 C 
ATOM     15  C   UNL     1      -1.666  -1.258   2.132  1.00  0.00     0.051 A 
ATOM     16  C   UNL     1      -0.596  -0.739   0.046  1.00  0.00     0.015 A 
ATOM     17  N   UNL     1      -2.936  -1.211   2.764  1.00  0.00    -0.307 N 
ATOM     18  C   UNL     1      -4.100   0.923   2.219  1.00  0.00     0.222 C 
ATOM     19  C   UNL     1      -0.455  -1.608   2.713  1.00  0.00     0.073 A 
ATOM     20  C   UNL     1       0.727  -1.534   1.942  1.00  0.00     0.125 A 
BRANCH   6  21
ATOM     21  C   UNL     1      -4.649   2.641  -1.081  1.00  0.00     0.013 C 
ATOM     22  C   UNL     1      -5.956   3.435  -1.215  1.00  0.00     0.005 C 
ENDBRANCH   6  21
BRANCH  12  23
ATOM     23  O   UNL     1      -6.427   1.171   1.538  1.00  0.00    -0.458 OA
BRANCH  23  24
ATOM     24  C   UNL     1      -7.289   1.922   2.347  1.00  0.00     0.303 C 
ATOM     25  C   UNL     1      -8.671   1.419   2.595  1.00  0.00     0.139 C 
ATOM     26  O   UNL     1      -6.907   3.002   2.874  1.00  0.00    -0.253 OA
ENDBRANCH  23  24
ENDBRANCH  12  23
BRANCH  17  27
ATOM     27  C   UNL     1      -3.302  -1.965   3.928  1.00  0.00     0.345 C 
ATOM     28  O   UNL     1      -4.502  -2.013   4.307  1.00  0.00    -0.278 OA
ENDBRANCH  17  27
BRANCH  18  29
ATOM     29  O   UNL     1      -4.732   0.990   3.483  1.00  0.00    -0.374 OA
ATOM     30  H   UNL     1      -4.124   0.630   4.177  1.00  0.00     0.212 HD
ENDBRANCH  18  29
BRANCH  18  31
ATOM     31  C   UNL     1      -2.786   1.710   2.307  1.00  0.00     0.344 C 
ATOM     32  O   UNL     1      -2.016   1.527   3.291  1.00  0.00    -0.249 OA
BRANCH  31  33
ATOM     33  O   UNL     1      -2.418   2.622   1.313  1.00  0.00    -0.467 OA
ATOM     34  C   UNL     1      -1.163   3.289   1.303  1.00  0.00     0.282 C 
ENDBRANCH  31  33
ENDBRANCH  18  31
BRANCH  20  35
ATOM     35  O   UNL     1       1.929  -2.052   2.452  1.00  0.00    -0.496 OA
ATOM     36  C   UNL     1       2.064  -2.758   3.687  1.00  0.00     0.278 C 
ENDBRANCH  20  35
ENDBRANCH   1   2
BRANCH   1  37
ATOM     37  C   UNL     1       2.971   0.135   0.728  1.00  0.00     0.035 C 
BRANCH  37  38
ATOM     38  C   UNL     1       4.332   0.765   0.299  1.00  0.00     0.008 C 
ATOM     39  C   UNL     1       5.489  -0.246   0.072  1.00  0.00     0.088 C 
ATOM     40  C   UNL     1       4.265   1.925  -0.704  1.00  0.00     0.041 C 
ATOM     41  N   UNL     1       6.178  -0.139  -1.234  1.00  0.00    -0.300 NA
ATOM     42  C   UNL     1       5.665   2.375  -1.161  1.00  0.00     0.077 C 
ATOM     43  C   UNL     1       6.321   1.183  -1.901  1.00  0.00     0.119 C 
BRANCH  41  44
ATOM     44  C   UNL     1       5.879  -1.244  -2.160  1.00  0.00     0.089 CG0
ATOM     45  G   UNL     1       4.384  -1.314  -2.526  1.00  0.00     0.000 G0
ENDBRANCH  41  44
BRANCH  42  46
ATOM     46  O   UNL     1       5.482   3.432  -2.076  1.00  0.00    -0.389 OA
ATOM     47  H   UNL     1       6.373   3.686  -2.437  1.00  0.00     0.211 HD
ENDBRANCH  42  46
BRANCH  42  48
ATOM     48  C   UNL     1       6.580   2.874   0.002  1.00  0.00     0.033 C 
ATOM     49  C   UNL     1       5.981   4.031   0.803  1.00  0.00     0.007 C 
ENDBRANCH  42  48
ENDBRANCH  37  38
ENDBRANCH   1  37
BRANCH   1  50
ATOM     50  C   UNL     1       1.619   0.154  -1.411  1.00  0.00     0.322 C 
ATOM     51  O   UNL     1       1.448  -0.375  -2.545  1.00  0.00    -0.251 OA
BRANCH  50  52
ATOM     52  O   UNL     1       1.254   1.492  -1.207  1.00  0.00    -0.468 OA
ATOM     53  C   UNL     1       0.732   2.311  -2.244  1.00  0.00     0.282 C 
ENDBRANCH  50  52
ENDBRANCH   1  50
BRANCH   1  54
ATOM     54  C   UNL     1       2.617  -2.050  -0.675  1.00  0.00     0.041 A 
ATOM     55  C   UNL     1       3.632  -2.278  -1.643  1.00  0.00    -0.017 A 
ATOM     56  N   UNL     1       2.145  -3.261  -0.255  1.00  0.00    -0.357 N 
ATOM     57  C   UNL     1       3.762  -3.654  -1.736  1.00  0.00     0.003 A 
ATOM     58  C   UNL     1       2.848  -4.208  -0.891  1.00  0.00     0.046 A 
ATOM     59  H   UNL     1       1.343  -3.466   0.378  1.00  0.00     0.166 HD
ATOM     60  C   UNL     1       4.587  -4.445  -2.543  1.00  0.00     0.010 A 
ATOM     61  C   UNL     1       2.673  -5.590  -0.794  1.00  0.00     0.026 A 
ATOM     62  C   UNL     1       4.448  -5.843  -2.454  1.00  0.00     0.001 A 
ATOM     63  C   UNL     1       3.495  -6.414  -1.584  1.00  0.00     0.002 A 
BRANCH  55  64
ATOM     64  C   UNL     1       4.384  -1.314  -2.526  1.00  0.00     0.053 CG0
ATOM     65  G   UNL     1       5.879  -1.244  -2.160  1.00  0.00     0.000 G0
ENDBRANCH  55  64
ENDBRANCH   1  54
TORSDOF 13
