REMARK SMILES CCN(C)C(=O)Oc1cccc([C@H](C)N(C)C)c1
REMARK SMILES IDX 7 1 5 2 6 3 3 4 4 5 2 6 1 7 8 8 9 9 18 10 10 11 12 12 11 13
REMARK SMILES IDX 13 14 14 15 15 16 16 17 17 18
REMARK H PARENT
REMARK Flexibility Score: inf
ROOT
ATOM      1  O   UNL     1      -1.924   0.298   0.205  1.00  0.00    -0.410 OA
ENDROOT
BRANCH   1   2
ATOM      2  C   UNL     1      -3.170   0.696  -0.302  1.00  0.00     0.414 C 
ATOM      3  O   UNL     1      -3.268   1.136  -1.481  1.00  0.00    -0.224 OA
BRANCH   2   4
ATOM      4  N   UNL     1      -4.332   0.654   0.547  1.00  0.00    -0.311 N 
ATOM      5  C   UNL     1      -5.633   1.072   0.015  1.00  0.00     0.150 C 
BRANCH   4   6
ATOM      6  C   UNL     1      -4.216   0.183   1.933  1.00  0.00     0.119 C 
ATOM      7  C   UNL     1      -3.651   1.282   2.825  1.00  0.00     0.027 C 
ENDBRANCH   4   6
ENDBRANCH   2   4
ENDBRANCH   1   2
BRANCH   1   8
ATOM      8  C   UNL     1      -0.782   0.027  -0.562  1.00  0.00     0.133 A 
ATOM      9  C   UNL     1      -0.860  -0.478  -1.871  1.00  0.00     0.047 A 
ATOM     10  C   UNL     1       0.474   0.226   0.022  1.00  0.00     0.052 A 
ATOM     11  C   UNL     1       0.307  -0.755  -2.586  1.00  0.00     0.004 A 
ATOM     12  C   UNL     1       1.658  -0.029  -0.695  1.00  0.00    -0.027 A 
ATOM     13  C   UNL     1       1.558  -0.535  -2.006  1.00  0.00     0.005 A 
BRANCH  12  14
ATOM     14  C   UNL     1       2.995   0.182   0.002  1.00  0.00     0.083 C 
ATOM     15  C   UNL     1       4.142   0.570  -0.959  1.00  0.00     0.030 C 
BRANCH  14  16
ATOM     16  N   UNL     1       3.303  -0.978   0.879  1.00  0.00    -0.303 NA
ATOM     17  C   UNL     1       3.746  -2.185   0.158  1.00  0.00     0.105 C 
ATOM     18  C   UNL     1       4.259  -0.637   1.946  1.00  0.00     0.105 C 
ENDBRANCH  14  16
ENDBRANCH  12  14
ENDBRANCH   1   8
TORSDOF 6
