REMARK SMILES C[C@]12C=CC(=O)C=C1CC[C@@H]1[C@@H]2C(=O)C[C@@]2(C)[C@H]1CC[C@]2(O)C(=O)CO
REMARK SMILES IDX 23 1 24 2 21 3 18 4 19 5 16 6 11 7 20 8 17 9 15 10 12 11
REMARK SMILES IDX 10 12 13 13 2 14 9 15 14 16 8 17 3 18 1 19 7 20 4 21 5 22
REMARK SMILES IDX 6 23 22 24 25 26 26 27
REMARK H PARENT 22 25 26 28
REMARK Flexibility Score: inf
ROOT
ATOM      1  C   UNL     1       4.322   0.108   0.243  1.00  0.00     0.190 C 
ATOM      2  O   UNL     1       4.970  -0.886   0.535  1.00  0.00    -0.294 OA
ENDROOT
BRANCH   1   3
ATOM      3  C   UNL     1       3.102  -0.000  -0.678  1.00  0.00     0.131 C 
ATOM      4  C   UNL     1       0.799  -0.545  -0.999  1.00  0.00     0.003 C 
ATOM      5  C   UNL     1       1.557  -1.711  -1.625  1.00  0.00     0.008 C 
ATOM      6  C   UNL     1       1.746  -0.003   0.091  1.00  0.00     0.014 C 
ATOM      7  C   UNL     1      -0.640  -0.794  -0.485  1.00  0.00     0.005 C 
ATOM      8  C   UNL     1       3.043  -1.335  -1.485  1.00  0.00     0.044 C 
ATOM      9  C   UNL     1       1.825  -0.937   1.346  1.00  0.00     0.016 C 
ATOM     10  C   UNL     1       1.217   1.382   0.536  1.00  0.00     0.086 C 
ATOM     11  C   UNL     1      -1.233   0.560   0.039  1.00  0.00     0.073 C 
ATOM     12  C   UNL     1      -1.535  -1.366  -1.599  1.00  0.00     0.009 C 
ATOM     13  C   UNL     1      -0.227   1.249   0.974  1.00  0.00     0.138 C 
ATOM     14  C   UNL     1      -2.708   0.406   0.574  1.00  0.00     0.017 C 
ATOM     15  C   UNL     1      -2.949  -1.623  -1.081  1.00  0.00     0.032 C 
ATOM     16  O   UNL     1      -0.559   1.711   2.054  1.00  0.00    -0.299 OA
ATOM     17  C   UNL     1      -3.527  -0.364  -0.481  1.00  0.00    -0.056 C 
ATOM     18  C   UNL     1      -3.300   1.794   0.840  1.00  0.00    -0.011 C 
ATOM     19  C   UNL     1      -2.778  -0.393   1.896  1.00  0.00     0.021 C 
ATOM     20  C   UNL     1      -4.791  -0.023  -0.784  1.00  0.00     0.052 C 
ATOM     21  C   UNL     1      -4.551   2.126   0.515  1.00  0.00     0.048 C 
ATOM     22  C   UNL     1      -5.382   1.206  -0.257  1.00  0.00     0.178 C 
ATOM     23  O   UNL     1      -6.585   1.489  -0.500  1.00  0.00    -0.290 OA
BRANCH   3  24
ATOM     24  O   UNL     1       3.121   1.074  -1.593  1.00  0.00    -0.381 OA
ATOM     25  H   UNL     1       3.981   1.037  -2.091  1.00  0.00     0.212 HD
ENDBRANCH   3  24
ENDBRANCH   1   3
BRANCH   1  26
ATOM     26  C   UNL     1       4.735   1.432   0.834  1.00  0.00     0.234 C 
BRANCH  26  27
ATOM     27  O   UNL     1       4.611   1.399   2.230  1.00  0.00    -0.388 OA
ATOM     28  H   UNL     1       5.403   0.909   2.576  1.00  0.00     0.211 HD
ENDBRANCH  26  27
ENDBRANCH   1  26
TORSDOF 4
