REMARK SMILES NS(=O)(=O)c1cc2c(cc1C(F)(F)F)NCNS2(=O)=O
REMARK SMILES IDX 5 1 6 2 7 3 8 4 15 5 16 6 17 7 18 8 19 9 20 10 9 11 10 12
REMARK SMILES IDX 2 15 3 16 4 17 1 18 11 21 12 22 13 23 14 24
REMARK H PARENT 15 13 17 14 1 19 1 20
REMARK Flexibility Score: inf
ROOT
ATOM      1  C   UNL     1      -1.442  -0.274  -0.179  1.00  0.00     0.095 A 
ATOM      2  C   UNL     1      -0.264  -1.035  -0.247  1.00  0.00     0.046 A 
ATOM      3  C   UNL     1       0.984  -0.445  -0.042  1.00  0.00     0.107 A 
ATOM      4  C   UNL     1       1.081   0.924   0.226  1.00  0.00     0.056 A 
ATOM      5  N   UNL     1       2.364   1.536   0.445  1.00  0.00    -0.370 N 
ATOM      6  C   UNL     1       3.611   0.907   0.006  1.00  0.00     0.214 C 
ATOM      7  N   UNL     1       3.732  -0.439   0.567  1.00  0.00    -0.193 NA
ATOM      8  S   UNL     1       2.443  -1.415  -0.062  1.00  0.00     0.244 S 
ATOM      9  O   UNL     1       2.759  -1.840  -1.469  1.00  0.00    -0.207 OA
ATOM     10  O   UNL     1       2.269  -2.626   0.812  1.00  0.00    -0.207 OA
ATOM     11  C   UNL     1      -0.084   1.695   0.298  1.00  0.00     0.041 A 
ATOM     12  C   UNL     1      -1.355   1.126   0.069  1.00  0.00     0.078 A 
ATOM     13  H   UNL     1       2.411   2.493   0.863  1.00  0.00     0.161 HD
ATOM     14  H   UNL     1       4.629  -0.851   0.223  1.00  0.00     0.143 HD
ENDROOT
BRANCH   1  15
ATOM     15  S   UNL     1      -2.984  -1.121  -0.426  1.00  0.00     0.238 S 
ATOM     16  O   UNL     1      -4.002  -0.673   0.584  1.00  0.00    -0.207 OA
ATOM     17  O   UNL     1      -3.491  -0.842  -1.813  1.00  0.00    -0.207 OA
BRANCH  15  18
ATOM     18  N   UNL     1      -2.767  -2.829  -0.248  1.00  0.00    -0.225 NA
ATOM     19  H   UNL     1      -3.698  -3.274  -0.406  1.00  0.00     0.137 HD
ATOM     20  H   UNL     1      -2.516  -3.003   0.751  1.00  0.00     0.137 HD
ENDBRANCH  15  18
ENDBRANCH   1  15
BRANCH  12  21
ATOM     21  C   UNL     1      -2.581   2.018   0.160  1.00  0.00     0.417 C 
ATOM     22  F   UNL     1      -3.228   1.791   1.360  1.00  0.00    -0.166 F 
ATOM     23  F   UNL     1      -3.447   1.769  -0.888  1.00  0.00    -0.166 F 
ATOM     24  F   UNL     1      -2.239   3.359   0.101  1.00  0.00    -0.166 F 
ENDBRANCH  12  21
TORSDOF 3
