REMARK SMILES CCNC(=O)[C@@H]1CCCN1C(=O)[C@H](CCCNC(=N)N)NC(=O)[C@H](CC(C)C)NC(=O)[C@@H](CC(C)C)NC(=O)[C@H](Cc1ccc(O)cc1)NC(=O)[C@H](CO)NC(=O)[C@H](Cc1c[nH]c2ccccc12)NC(=O)[C@H](Cc1c[nH]cn1)NC(=O)[C@@H]1CCC(=O)N1
REMARK SMILES IDX 37 1 38 2 39 3 32 5 30 6 29 7 31 9 24 10 22 11 21 12 23 14
REMARK SMILES IDX 13 15 11 16 12 17 10 18 6 19 7 20 8 21 9 22 4 23 3 24 5 26
REMARK SMILES IDX 2 27 1 28 14 29 15 30 16 31 17 32 18 33 20 35 19 36 25 40
REMARK SMILES IDX 26 41 27 42 28 43 33 44 34 45 35 46 36 47 40 48 41 49 42 50
REMARK SMILES IDX 43 51 48 52 44 53 47 54 45 55 46 56 49 58 50 59 51 61 52 62
REMARK SMILES IDX 53 63 54 64 55 66 56 67 57 69 58 70 59 71 60 72 61 73 68 74
REMARK SMILES IDX 62 75 63 76 67 77 64 79 66 80 65 81 69 82 70 83 71 85 72 86
REMARK SMILES IDX 73 87 74 88 75 89 78 90 76 91 77 92 79 94 80 95 81 97 82 98
REMARK SMILES IDX 83 99 87 100 84 101 85 102 86 104
REMARK H PARENT 37 4 29 8 21 13 3 25 17 34 20 37 20 38 19 39 46 57 49 60 54 65
REMARK H PARENT 55 68 62 78 69 84 76 93 79 96 87 103
REMARK Flexibility Score: inf
ROOT
ATOM      1  N   UNL     1       1.351  -0.564  -0.711  1.00  0.00    -0.343 N 
ATOM      2  C   UNL     1       0.229  -0.986   0.088  1.00  0.00     0.243 C 
ATOM      3  O   UNL     1       0.243  -2.108   0.665  1.00  0.00    -0.273 OA
ATOM      4  H   UNL     1       1.294   0.370  -1.178  1.00  0.00     0.164 HD
ENDROOT
BRANCH   1   5
ATOM      5  C   UNL     1       2.540  -1.386  -0.994  1.00  0.00     0.171 C 
BRANCH   5   6
ATOM      6  C   UNL     1       3.388  -1.538   0.252  1.00  0.00     0.243 C 
ATOM      7  N   UNL     1       4.792  -1.250   0.210  1.00  0.00    -0.343 N 
ATOM      8  H   UNL     1       5.217  -1.039  -0.722  1.00  0.00     0.164 HD
ATOM      9  O   UNL     1       2.860  -1.920   1.331  1.00  0.00    -0.273 OA
BRANCH   7  10
ATOM     10  C   UNL     1       5.628  -1.124   1.415  1.00  0.00     0.171 C 
BRANCH  10  11
ATOM     11  C   UNL     1       6.968  -0.514   1.054  1.00  0.00     0.243 C 
ATOM     12  N   UNL     1       7.010   0.672   0.249  1.00  0.00    -0.343 N 
ATOM     13  H   UNL     1       6.156   1.270   0.195  1.00  0.00     0.164 HD
ATOM     14  O   UNL     1       8.047  -1.038   1.441  1.00  0.00    -0.273 OA
BRANCH  12  15
ATOM     15  C   UNL     1       8.215   1.053  -0.494  1.00  0.00     0.171 C 
BRANCH  15  16
ATOM     16  C   UNL     1       9.140   1.853   0.394  1.00  0.00     0.245 C 
ATOM     17  O   UNL     1       8.639   2.569   1.300  1.00  0.00    -0.272 OA
BRANCH  16  18
ATOM     18  N   UNL     1      10.577   1.797   0.242  1.00  0.00    -0.329 N 
ATOM     19  C   UNL     1      11.496   2.111   1.329  1.00  0.00     0.174 C 
ATOM     20  C   UNL     1      12.905   1.844   0.786  1.00  0.00     0.037 C 
ATOM     21  C   UNL     1      12.732   1.193  -0.584  1.00  0.00     0.024 C 
ATOM     22  C   UNL     1      11.260   1.325  -0.955  1.00  0.00     0.120 C 
BRANCH  19  23
ATOM     23  C   UNL     1      11.341   3.536   1.793  1.00  0.00     0.242 C 
ATOM     24  N   UNL     1      11.215   4.605   0.842  1.00  0.00    -0.355 N 
ATOM     25  H   UNL     1      11.249   4.385  -0.178  1.00  0.00     0.163 HD
ATOM     26  O   UNL     1      11.335   3.780   3.031  1.00  0.00    -0.273 OA
BRANCH  24  27
ATOM     27  C   UNL     1      10.919   5.981   1.244  1.00  0.00     0.112 C 
ATOM     28  C   UNL     1      12.155   6.647   1.836  1.00  0.00     0.027 C 
ENDBRANCH  24  27
ENDBRANCH  19  23
ENDBRANCH  16  18
ENDBRANCH  15  16
BRANCH  15  29
ATOM     29  C   UNL     1       7.843   1.852  -1.760  1.00  0.00     0.037 C 
BRANCH  29  30
ATOM     30  C   UNL     1       6.875   1.110  -2.709  1.00  0.00     0.024 C 
BRANCH  30  31
ATOM     31  C   UNL     1       7.330  -0.303  -3.113  1.00  0.00     0.116 C 
BRANCH  31  32
ATOM     32  N   UNL     1       8.658  -0.295  -3.732  1.00  0.00    -0.357 N 
ATOM     33  C   UNL     1       9.487  -1.463  -3.835  1.00  0.00     0.185 C 
ATOM     34  H   UNL     1       9.044   0.607  -4.088  1.00  0.00     0.163 HD
ATOM     35  N   UNL     1      10.860  -1.316  -4.199  1.00  0.00    -0.370 N 
ATOM     36  N   UNL     1       9.012  -2.655  -3.629  1.00  0.00    -0.270 NA
ATOM     37  H   UNL     1      11.258  -0.370  -4.395  1.00  0.00     0.159 HD
ATOM     38  H   UNL     1      11.489  -2.148  -4.252  1.00  0.00     0.159 HD
ATOM     39  H   UNL     1       8.016  -2.839  -3.381  1.00  0.00     0.191 HD
ENDBRANCH  31  32
ENDBRANCH  30  31
ENDBRANCH  29  30
ENDBRANCH  15  29
ENDBRANCH  12  15
ENDBRANCH  10  11
BRANCH  10  40
ATOM     40  C   UNL     1       5.758  -2.471   2.185  1.00  0.00     0.038 C 
BRANCH  40  41
ATOM     41  C   UNL     1       5.869  -3.747   1.311  1.00  0.00    -0.015 C 
ATOM     42  C   UNL     1       5.869  -4.996   2.201  1.00  0.00     0.007 C 
ATOM     43  C   UNL     1       7.112  -3.753   0.410  1.00  0.00     0.007 C 
ENDBRANCH  40  41
ENDBRANCH  10  40
ENDBRANCH   7  10
ENDBRANCH   5   6
BRANCH   5  44
ATOM     44  C   UNL     1       2.125  -2.746  -1.626  1.00  0.00     0.038 C 
BRANCH  44  45
ATOM     45  C   UNL     1       3.073  -3.341  -2.703  1.00  0.00    -0.015 C 
ATOM     46  C   UNL     1       3.394  -2.367  -3.849  1.00  0.00     0.007 C 
ATOM     47  C   UNL     1       4.356  -3.928  -2.114  1.00  0.00     0.007 C 
ENDBRANCH  44  45
ENDBRANCH   5  44
ENDBRANCH   1   5
BRANCH   2  48
ATOM     48  C   UNL     1      -0.982  -0.092   0.219  1.00  0.00     0.175 C 
BRANCH  48  49
ATOM     49  C   UNL     1      -0.646   1.254   0.903  1.00  0.00     0.070 C 
BRANCH  49  50
ATOM     50  C   UNL     1      -0.114   1.107   2.311  1.00  0.00    -0.045 A 
ATOM     51  C   UNL     1      -0.982   1.192   3.413  1.00  0.00     0.007 A 
ATOM     52  C   UNL     1       1.254   0.875   2.533  1.00  0.00     0.007 A 
ATOM     53  C   UNL     1      -0.495   1.020   4.711  1.00  0.00     0.046 A 
ATOM     54  C   UNL     1       1.741   0.712   3.833  1.00  0.00     0.046 A 
ATOM     55  C   UNL     1       0.868   0.774   4.925  1.00  0.00     0.115 A 
BRANCH  55  56
ATOM     56  O   UNL     1       1.360   0.589   6.214  1.00  0.00    -0.508 OA
ATOM     57  H   UNL     1       0.749   0.606   7.024  1.00  0.00     0.293 HD
ENDBRANCH  55  56
ENDBRANCH  49  50
ENDBRANCH  48  49
BRANCH  48  58
ATOM     58  N   UNL     1      -2.060  -0.784   0.935  1.00  0.00    -0.342 N 
ATOM     59  C   UNL     1      -3.008  -1.638   0.280  1.00  0.00     0.245 C 
ATOM     60  H   UNL     1      -2.028  -0.826   1.977  1.00  0.00     0.164 HD
ATOM     61  O   UNL     1      -2.964  -1.802  -0.971  1.00  0.00    -0.273 OA
BRANCH  59  62
ATOM     62  C   UNL     1      -4.040  -2.372   1.099  1.00  0.00     0.197 C 
BRANCH  62  63
ATOM     63  C   UNL     1      -3.529  -3.780   1.428  1.00  0.00     0.191 C 
BRANCH  63  64
ATOM     64  O   UNL     1      -4.421  -4.420   2.297  1.00  0.00    -0.394 OA
ATOM     65  H   UNL     1      -4.025  -5.308   2.495  1.00  0.00     0.210 HD
ENDBRANCH  63  64
ENDBRANCH  62  63
BRANCH  62  66
ATOM     66  N   UNL     1      -5.326  -2.431   0.395  1.00  0.00    -0.340 N 
ATOM     67  C   UNL     1      -6.077  -1.247   0.076  1.00  0.00     0.243 C 
ATOM     68  H   UNL     1      -5.766  -3.361   0.208  1.00  0.00     0.164 HD
ATOM     69  O   UNL     1      -5.560  -0.108   0.253  1.00  0.00    -0.273 OA
BRANCH  67  70
ATOM     70  C   UNL     1      -7.494  -1.365  -0.435  1.00  0.00     0.175 C 
BRANCH  70  71
ATOM     71  C   UNL     1      -7.535  -2.083  -1.799  1.00  0.00     0.072 C 
BRANCH  71  72
ATOM     72  C   UNL     1      -8.956  -2.336  -2.218  1.00  0.00    -0.020 A 
ATOM     73  C   UNL     1      -9.771  -3.370  -1.764  1.00  0.00     0.087 A 
ATOM     74  C   UNL     1      -9.784  -1.498  -2.942  1.00  0.00     0.003 A 
ATOM     75  N   UNL     1     -11.041  -3.193  -2.192  1.00  0.00    -0.361 N 
ATOM     76  C   UNL     1     -11.038  -2.051  -2.903  1.00  0.00     0.046 A 
ATOM     77  C   UNL     1      -9.537  -0.281  -3.578  1.00  0.00     0.010 A 
ATOM     78  H   UNL     1     -11.863  -3.800  -1.979  1.00  0.00     0.166 HD
ATOM     79  C   UNL     1     -12.132  -1.425  -3.497  1.00  0.00     0.026 A 
ATOM     80  C   UNL     1     -10.622   0.368  -4.192  1.00  0.00     0.001 A 
ATOM     81  C   UNL     1     -11.914  -0.199  -4.151  1.00  0.00     0.002 A 
ENDBRANCH  71  72
ENDBRANCH  70  71
BRANCH  70  82
ATOM     82  N   UNL     1      -8.105  -0.035  -0.559  1.00  0.00    -0.342 N 
ATOM     83  C   UNL     1      -9.420   0.276  -0.072  1.00  0.00     0.243 C 
ATOM     84  H   UNL     1      -7.622   0.669  -1.162  1.00  0.00     0.164 HD
ATOM     85  O   UNL     1     -10.085  -0.596   0.550  1.00  0.00    -0.273 OA
BRANCH  83  86
ATOM     86  C   UNL     1     -10.015   1.637  -0.355  1.00  0.00     0.177 C 
BRANCH  86  87
ATOM     87  C   UNL     1      -9.166   2.762   0.271  1.00  0.00     0.093 C 
BRANCH  87  88
ATOM     88  C   UNL     1      -9.781   4.117   0.068  1.00  0.00     0.061 A 
ATOM     89  C   UNL     1      -9.794   5.138   0.993  1.00  0.00     0.107 A 
ATOM     90  N   UNL     1     -10.308   4.547  -1.096  1.00  0.00    -0.242 NA
ATOM     91  N   UNL     1     -10.357   6.209   0.416  1.00  0.00    -0.351 N 
ATOM     92  C   UNL     1     -10.660   5.826  -0.839  1.00  0.00     0.196 A 
ATOM     93  H   UNL     1     -10.510   7.150   0.844  1.00  0.00     0.167 HD
ENDBRANCH  87  88
ENDBRANCH  86  87
BRANCH  86  94
ATOM     94  N   UNL     1     -11.424   1.716   0.067  1.00  0.00    -0.342 N 
ATOM     95  C   UNL     1     -11.868   1.664   1.435  1.00  0.00     0.243 C 
ATOM     96  H   UNL     1     -12.132   1.864  -0.688  1.00  0.00     0.164 HD
ATOM     97  O   UNL     1     -11.024   1.485   2.358  1.00  0.00    -0.273 OA
BRANCH  95  98
ATOM     98  C   UNL     1     -13.316   1.949   1.781  1.00  0.00     0.171 C 
ATOM     99  C   UNL     1     -13.741   1.413   3.177  1.00  0.00     0.045 C 
ATOM    100  N   UNL     1     -14.206   1.296   0.835  1.00  0.00    -0.344 N 
ATOM    101  C   UNL     1     -14.687   0.226   2.937  1.00  0.00     0.102 C 
ATOM    102  C   UNL     1     -14.986   0.325   1.497  1.00  0.00     0.220 C 
ATOM    103  H   UNL     1     -14.338   1.570  -0.163  1.00  0.00     0.164 HD
ATOM    104  O   UNL     1     -15.848  -0.374   0.906  1.00  0.00    -0.275 OA
ENDBRANCH  95  98
ENDBRANCH  86  94
ENDBRANCH  83  86
ENDBRANCH  70  82
ENDBRANCH  67  70
ENDBRANCH  62  66
ENDBRANCH  59  62
ENDBRANCH  48  58
ENDBRANCH   2  48
TORSDOF 35
