REMARK SMILES CN1[C@@H]2CC[C@H]1C[C@@H](OC(c1ccccc1)c1ccccc1)C2
REMARK SMILES IDX 10 1 9 2 8 3 6 4 5 5 7 6 2 7 4 8 3 9 1 10 23 11 11 12 12 13
REMARK SMILES IDX 16 14 13 15 15 16 14 17 17 18 18 19 22 20 19 21 21 22 20 23
REMARK H PARENT
REMARK Flexibility Score: inf
ROOT
ATOM      1  C   UNL     1      -1.463   0.207   0.435  1.00  0.00     0.179 C 
ENDROOT
BRANCH   1   2
ATOM      2  O   UNL     1      -0.273   0.588  -0.240  1.00  0.00    -0.365 OA
BRANCH   2   3
ATOM      3  C   UNL     1       0.873  -0.046   0.310  1.00  0.00     0.122 C 
ATOM      4  C   UNL     1       3.107   0.681   1.412  1.00  0.00     0.059 C 
ATOM      5  C   UNL     1       3.862   1.580   0.418  1.00  0.00     0.021 C 
ATOM      6  C   UNL     1       1.575   0.919   1.312  1.00  0.00     0.051 C 
ATOM      7  N   UNL     1       3.371  -0.703   0.995  1.00  0.00    -0.300 NA
ATOM      8  C   UNL     1       3.994   0.727  -0.834  1.00  0.00     0.021 C 
ATOM      9  C   UNL     1       3.289  -0.589  -0.467  1.00  0.00     0.059 C 
ATOM     10  C   UNL     1       4.685  -1.191   1.451  1.00  0.00     0.105 C 
ATOM     11  C   UNL     1       1.786  -0.527  -0.855  1.00  0.00     0.051 C 
ENDBRANCH   2   3
ENDBRANCH   1   2
BRANCH   1  12
ATOM     12  C   UNL     1      -2.552   1.223   0.173  1.00  0.00    -0.015 A 
ATOM     13  C   UNL     1      -2.617   1.928  -1.047  1.00  0.00     0.007 A 
ATOM     14  C   UNL     1      -3.560   1.429   1.134  1.00  0.00     0.007 A 
ATOM     15  C   UNL     1      -3.652   2.838  -1.283  1.00  0.00     0.000 A 
ATOM     16  C   UNL     1      -4.595   2.337   0.891  1.00  0.00     0.000 A 
ATOM     17  C   UNL     1      -4.640   3.042  -0.316  1.00  0.00     0.000 A 
ENDBRANCH   1  12
BRANCH   1  18
ATOM     18  C   UNL     1      -1.934  -1.154  -0.035  1.00  0.00    -0.015 A 
ATOM     19  C   UNL     1      -1.905  -1.493  -1.401  1.00  0.00     0.007 A 
ATOM     20  C   UNL     1      -2.447  -2.081   0.889  1.00  0.00     0.007 A 
ATOM     21  C   UNL     1      -2.363  -2.743  -1.828  1.00  0.00     0.000 A 
ATOM     22  C   UNL     1      -2.904  -3.330   0.457  1.00  0.00     0.000 A 
ATOM     23  C   UNL     1      -2.861  -3.661  -0.900  1.00  0.00     0.000 A 
ENDBRANCH   1  18
TORSDOF 4
