REMARK SMILES CC(CCc1ccccc1)NCC(O)c1ccc(O)c(C(N)=O)c1
REMARK SMILES IDX 11 1 2 3 1 4 3 5 4 6 5 7 6 8 10 9 7 10 9 11 8 12 12 13 13 14
REMARK SMILES IDX 14 15 15 17 24 18 16 19 20 20 17 21 18 22 21 23 22 24 23 25
REMARK SMILES IDX 19 28
REMARK H PARENT 11 2 14 16 22 26 22 27 19 29
REMARK Flexibility Score: inf
ROOT
ATOM      1  N   UNL     1      -0.222   0.069  -0.367  1.00  0.00    -0.311 NA
ATOM      2  H   UNL     1      -0.220   1.079  -0.091  1.00  0.00     0.123 HD
ENDROOT
BRANCH   1   3
ATOM      3  C   UNL     1       1.053  -0.273  -1.028  1.00  0.00     0.051 C 
ATOM      4  C   UNL     1       0.951   0.125  -2.504  1.00  0.00     0.024 C 
BRANCH   3   5
ATOM      5  C   UNL     1       2.245   0.433  -0.332  1.00  0.00     0.023 C 
BRANCH   5   6
ATOM      6  C   UNL     1       3.604  -0.133  -0.769  1.00  0.00     0.037 C 
BRANCH   6   7
ATOM      7  C   UNL     1       4.717   0.503   0.019  1.00  0.00    -0.048 A 
ATOM      8  C   UNL     1       5.155  -0.075   1.223  1.00  0.00     0.004 A 
ATOM      9  C   UNL     1       5.289   1.712  -0.411  1.00  0.00     0.004 A 
ATOM     10  C   UNL     1       6.166   0.536   1.971  1.00  0.00     0.000 A 
ATOM     11  C   UNL     1       6.299   2.321   0.340  1.00  0.00     0.000 A 
ATOM     12  C   UNL     1       6.739   1.732   1.529  1.00  0.00     0.000 A 
ENDBRANCH   6   7
ENDBRANCH   5   6
ENDBRANCH   3   5
ENDBRANCH   1   3
BRANCH   1  13
ATOM     13  C   UNL     1      -0.502  -0.764   0.816  1.00  0.00     0.117 C 
BRANCH  13  14
ATOM     14  C   UNL     1      -1.516  -1.869   0.483  1.00  0.00     0.158 C 
BRANCH  14  15
ATOM     15  O   UNL     1      -0.987  -2.725  -0.497  1.00  0.00    -0.387 OA
ATOM     16  H   UNL     1      -1.560  -3.536  -0.508  1.00  0.00     0.211 HD
ENDBRANCH  14  15
BRANCH  14  17
ATOM     17  C   UNL     1      -2.837  -1.276   0.033  1.00  0.00    -0.017 A 
ATOM     18  C   UNL     1      -3.833  -0.989   0.980  1.00  0.00     0.024 A 
ATOM     19  C   UNL     1      -3.057  -0.939  -1.312  1.00  0.00     0.010 A 
ATOM     20  C   UNL     1      -5.046  -0.393   0.595  1.00  0.00     0.081 A 
ATOM     21  C   UNL     1      -4.267  -0.368  -1.708  1.00  0.00     0.047 A 
ATOM     22  C   UNL     1      -5.274  -0.112  -0.773  1.00  0.00     0.128 A 
BRANCH  20  23
ATOM     23  C   UNL     1      -6.034  -0.060   1.641  1.00  0.00     0.252 C 
ATOM     24  N   UNL     1      -6.640   1.232   1.692  1.00  0.00    -0.365 N 
ATOM     25  O   UNL     1      -6.306  -0.907   2.534  1.00  0.00    -0.269 OA
ATOM     26  H   UNL     1      -6.346   1.988   1.034  1.00  0.00     0.159 HD
ATOM     27  H   UNL     1      -7.349   1.452   2.427  1.00  0.00     0.159 HD
ENDBRANCH  20  23
BRANCH  22  28
ATOM     28  O   UNL     1      -6.491   0.389  -1.238  1.00  0.00    -0.507 OA
ATOM     29  H   UNL     1      -7.312   0.474  -0.654  1.00  0.00     0.293 HD
ENDBRANCH  22  28
ENDBRANCH  14  17
ENDBRANCH  13  14
ENDBRANCH   1  13
TORSDOF 10
