REMARK SMILES C#C[C@]1(O)CC[C@H]2[C@@H]3CCC4=CC(=O)CC[C@@H]4[C@H]3CC[C@@]21C
REMARK SMILES IDX 7 1 6 2 5 3 3 4 21 5 22 6 20 7 19 8 18 9 17 10 16 11 15 12
REMARK SMILES IDX 13 13 14 14 12 15 11 16 10 17 9 18 8 19 4 20 2 22 1 23
REMARK H PARENT 4 21
REMARK Flexibility Score: inf
ROOT
ATOM      1  C   UNL     1       1.427   0.315  -0.651  1.00  0.00     0.002 C 
ATOM      2  C   UNL     1       2.326   0.423  -1.878  1.00  0.00     0.008 C 
ATOM      3  C   UNL     1       3.734   0.073  -1.362  1.00  0.00     0.050 C 
ATOM      4  C   UNL     1       3.577  -0.405   0.110  1.00  0.00     0.130 C 
ATOM      5  C   UNL     1       2.067  -0.789   0.204  1.00  0.00     0.011 C 
ATOM      6  C   UNL     1       1.873  -2.224  -0.394  1.00  0.00     0.016 C 
ATOM      7  C   UNL     1       1.418  -0.734   1.611  1.00  0.00     0.011 C 
ATOM      8  C   UNL     1      -0.120  -0.884   1.533  1.00  0.00     0.005 C 
ATOM      9  C   UNL     1      -0.792   0.109   0.536  1.00  0.00    -0.000 C 
ATOM     10  C   UNL     1      -2.319  -0.166   0.374  1.00  0.00     0.019 C 
ATOM     11  C   UNL     1      -3.060  -0.024   1.730  1.00  0.00     0.016 C 
ATOM     12  C   UNL     1      -4.574  -0.147   1.564  1.00  0.00     0.081 C 
ATOM     13  C   UNL     1      -5.061   0.815   0.528  1.00  0.00     0.155 C 
ATOM     14  O   UNL     1      -6.233   1.271   0.595  1.00  0.00    -0.295 OA
ATOM     15  C   UNL     1      -4.203   1.168  -0.610  1.00  0.00     0.046 C 
ATOM     16  C   UNL     1      -2.925   0.756  -0.688  1.00  0.00    -0.063 C 
ATOM     17  C   UNL     1      -2.173   0.988  -1.977  1.00  0.00     0.032 C 
ATOM     18  C   UNL     1      -0.685   1.229  -1.728  1.00  0.00     0.008 C 
ATOM     19  C   UNL     1      -0.089   0.109  -0.858  1.00  0.00    -0.003 C 
ENDROOT
BRANCH   4  20
ATOM     20  O   UNL     1       4.405  -1.512   0.381  1.00  0.00    -0.377 OA
ATOM     21  H   UNL     1       5.339  -1.251   0.162  1.00  0.00     0.212 HD
ENDBRANCH   4  20
BRANCH   4  22
ATOM     22  C   UNL     1       3.940   0.700   1.034  1.00  0.00    -0.071 C 
ATOM     23  C   UNL     1       4.238   1.598   1.781  1.00  0.00     0.007 C 
ENDBRANCH   4  22
TORSDOF 2
