REMARK SMILES CCC(=O)[C@@]1(C)[C@H](C)C[C@H]2[C@@H]3CCC4=CC(=O)C=C[C@]4(C)[C@H]3[C@@H](O)C[C@@]21C
REMARK SMILES IDX 10 1 9 2 7 3 8 4 5 5 6 6 26 7 27 8 25 9 23 10 22 11 11 12
REMARK SMILES IDX 12 13 13 14 14 15 15 16 16 17 17 18 18 19 19 20 20 21 21 22
REMARK SMILES IDX 3 23 4 24 2 25 1 26 24 27
REMARK H PARENT 24 28
REMARK Flexibility Score: inf
ROOT
ATOM      1  C   UNL     1      -0.283  -0.789   0.282  1.00  0.00    -0.000 C 
ATOM      2  C   UNL     1      -1.220  -1.973   0.093  1.00  0.00     0.008 C 
ATOM      3  C   UNL     1      -2.641  -1.412   0.347  1.00  0.00    -0.000 C 
ATOM      4  C   UNL     1      -3.354  -2.186   1.472  1.00  0.00     0.009 C 
ATOM      5  C   UNL     1      -2.497   0.154   0.556  1.00  0.00     0.034 C 
ATOM      6  C   UNL     1      -2.500   0.529   2.069  1.00  0.00     0.020 C 
ATOM      7  C   UNL     1      -1.105   0.440  -0.142  1.00  0.00    -0.014 C 
ATOM      8  C   UNL     1      -1.316   0.505  -1.698  1.00  0.00     0.013 C 
ATOM      9  C   UNL     1      -0.327   1.702   0.331  1.00  0.00     0.040 C 
ATOM     10  C   UNL     1       1.128   1.760  -0.213  1.00  0.00     0.119 C 
ATOM     11  C   UNL     1       1.926   0.434   0.051  1.00  0.00     0.035 C 
ATOM     12  C   UNL     1       1.126  -0.855  -0.359  1.00  0.00    -0.000 C 
ATOM     13  C   UNL     1       1.866  -2.125   0.117  1.00  0.00     0.009 C 
ATOM     14  C   UNL     1       3.290  -2.186  -0.430  1.00  0.00     0.032 C 
ATOM     15  C   UNL     1       4.031  -0.930  -0.053  1.00  0.00    -0.056 C 
ATOM     16  C   UNL     1       5.184  -1.023   0.630  1.00  0.00     0.052 C 
ATOM     17  C   UNL     1       5.891   0.176   1.076  1.00  0.00     0.178 C 
ATOM     18  O   UNL     1       6.979   0.075   1.702  1.00  0.00    -0.290 OA
ATOM     19  C   UNL     1       5.319   1.492   0.806  1.00  0.00     0.048 C 
ATOM     20  C   UNL     1       4.179   1.609   0.124  1.00  0.00    -0.012 C 
ATOM     21  C   UNL     1       3.420   0.419  -0.466  1.00  0.00     0.013 C 
ATOM     22  C   UNL     1       3.540   0.535  -2.005  1.00  0.00     0.021 C 
ENDROOT
BRANCH   5  23
ATOM     23  C   UNL     1      -3.633   0.981  -0.073  1.00  0.00     0.139 C 
ATOM     24  O   UNL     1      -3.513   2.199  -0.099  1.00  0.00    -0.299 OA
BRANCH  23  25
ATOM     25  C   UNL     1      -4.872   0.358  -0.689  1.00  0.00     0.073 C 
ATOM     26  C   UNL     1      -6.014   1.359  -0.872  1.00  0.00     0.012 C 
ENDBRANCH  23  25
ENDBRANCH   5  23
BRANCH  10  27
ATOM     27  O   UNL     1       1.130   2.098  -1.574  1.00  0.00    -0.393 OA
ATOM     28  H   UNL     1       0.882   3.058  -1.637  1.00  0.00     0.210 HD
ENDBRANCH  10  27
TORSDOF 3
