REMARK SMILES CN(C)CC/C=C1/c2ccccc2COc2ccc(CC(=O)O)cc21
REMARK SMILES IDX 6 1 7 2 8 3 9 4 10 5 11 6 12 7 13 8 14 9 15 10 16 11 25 12
REMARK SMILES IDX 24 13 19 14 18 15 17 16 5 17 4 18 2 19 1 20 3 21 20 22 21 23
REMARK SMILES IDX 22 24 23 25
REMARK H PARENT 23 26
REMARK Flexibility Score: inf
ROOT
ATOM      1  C   UNL     1       0.953  -0.881   0.610  1.00  0.00    -0.016 C 
ATOM      2  C   UNL     1      -0.394  -0.841   0.560  1.00  0.00    -0.011 C 
ATOM      3  C   UNL     1      -1.159  -1.915   1.216  1.00  0.00    -0.011 A 
ATOM      4  C   UNL     1      -1.140  -2.055   2.612  1.00  0.00     0.009 A 
ATOM      5  C   UNL     1      -1.890  -3.062   3.225  1.00  0.00     0.001 A 
ATOM      6  C   UNL     1      -2.658  -3.934   2.449  1.00  0.00     0.000 A 
ATOM      7  C   UNL     1      -2.671  -3.807   1.056  1.00  0.00     0.008 A 
ATOM      8  C   UNL     1      -1.914  -2.802   0.433  1.00  0.00    -0.003 A 
ATOM      9  C   UNL     1      -1.885  -2.672  -1.064  1.00  0.00     0.266 C 
ATOM     10  O   UNL     1      -2.538  -1.474  -1.474  1.00  0.00    -0.488 OA
ATOM     11  C   UNL     1      -2.164  -0.157  -1.148  1.00  0.00     0.127 A 
ATOM     12  C   UNL     1      -1.147   0.183  -0.210  1.00  0.00     0.024 A 
ATOM     13  C   UNL     1      -0.924   1.541   0.087  1.00  0.00     0.017 A 
ATOM     14  C   UNL     1      -1.627   2.554  -0.578  1.00  0.00    -0.036 A 
ATOM     15  C   UNL     1      -2.603   2.208  -1.517  1.00  0.00     0.008 A 
ATOM     16  C   UNL     1      -2.869   0.867  -1.792  1.00  0.00     0.047 A 
ENDROOT
BRANCH   1  17
ATOM     17  C   UNL     1       1.850   0.036  -0.184  1.00  0.00     0.043 C 
BRANCH  17  18
ATOM     18  C   UNL     1       3.301  -0.465  -0.176  1.00  0.00     0.088 C 
BRANCH  18  19
ATOM     19  N   UNL     1       4.178   0.467  -0.918  1.00  0.00    -0.309 NA
ATOM     20  C   UNL     1       5.560   0.373  -0.417  1.00  0.00     0.104 C 
ATOM     21  C   UNL     1       4.161   0.172  -2.362  1.00  0.00     0.104 C 
ENDBRANCH  18  19
ENDBRANCH  17  18
ENDBRANCH   1  17
BRANCH  14  22
ATOM     22  C   UNL     1      -1.392   3.996  -0.224  1.00  0.00     0.158 C 
BRANCH  22  23
ATOM     23  C   UNL     1      -2.261   4.388   0.927  1.00  0.00     0.307 C 
ATOM     24  O   UNL     1      -1.824   4.306   2.105  1.00  0.00    -0.252 OA
BRANCH  23  25
ATOM     25  O   UNL     1      -3.567   4.809   0.697  1.00  0.00    -0.481 OA
ATOM     26  H   UNL     1      -4.174   5.063   1.467  1.00  0.00     0.296 HD
ENDBRANCH  23  25
ENDBRANCH  22  23
ENDBRANCH  14  22
TORSDOF 6
