REMARK SMILES Oc1ccc(C2CNCCc3c2cc(O)c(O)c3Cl)cc1
REMARK SMILES IDX 7 1 6 2 5 3 2 4 3 5 21 6 4 7 20 8 1 9 12 11 11 12 13 13
REMARK SMILES IDX 18 14 14 15 19 16 16 17 10 18 15 20 17 22 8 24 9 26
REMARK H PARENT 1 10 15 21 17 23 8 25
REMARK Flexibility Score: 90.00
ROOT
ATOM      1  C   UNL     1       0.110  -1.452  -1.598  1.00  0.00     0.094 C 
ENDROOT
BRANCH   1   2
ATOM      2  C   UNL     1       0.358  -0.916  -0.166  1.00  0.00     0.063 C 
BRANCH   2   3
ATOM      3  C   UNL     1       1.758  -0.324  -0.027  1.00  0.00    -0.039 A 
ATOM      4  C   UNL     1       4.313   0.820   0.302  1.00  0.00     0.115 A 
ATOM      5  C   UNL     1       3.768   0.013   1.309  1.00  0.00     0.046 A 
ATOM      6  C   UNL     1       3.580   1.065  -0.862  1.00  0.00     0.046 A 
ATOM      7  C   UNL     1       2.498  -0.549   1.149  1.00  0.00     0.008 A 
ATOM      8  C   UNL     1       2.310   0.504  -1.026  1.00  0.00     0.008 A 
BRANCH   4   9
ATOM      9  O   UNL     1       5.577   1.385   0.451  1.00  0.00    -0.508 OA
ATOM     10  H   UNL     1       6.132   1.228   1.284  1.00  0.00     0.293 HD
ENDBRANCH   4   9
ENDBRANCH   2   3
BRANCH   2  11
ATOM     11  C   UNL     1      -0.767   0.037   0.265  1.00  0.00    -0.031 A 
ATOM     12  C   UNL     1      -2.104  -0.438   0.389  1.00  0.00    -0.020 A 
ATOM     13  C   UNL     1      -0.510   1.402   0.509  1.00  0.00     0.055 A 
ATOM     14  C   UNL     1      -3.143   0.471   0.727  1.00  0.00     0.090 A 
ATOM     15  C   UNL     1      -1.529   2.282   0.861  1.00  0.00     0.159 A 
ATOM     16  Cl  UNL     1      -4.828  -0.060   0.833  1.00  0.00    -0.080 Cl
ATOM     17  C   UNL     1      -2.847   1.827   0.969  1.00  0.00     0.176 A 
BRANCH  12  18
ATOM     18  C   UNL     1      -2.412  -1.902   0.123  1.00  0.00     0.053 CG0
ATOM     19  G   UNL     1      -2.180  -2.261  -1.349  1.00  0.00     0.000 G0
ENDBRANCH  12  18
BRANCH  15  20
ATOM     20  O   UNL     1      -1.208   3.620   1.097  1.00  0.00    -0.504 OA
ATOM     21  H   UNL     1      -1.905   4.307   1.355  1.00  0.00     0.293 HD
ENDBRANCH  15  20
BRANCH  17  22
ATOM     22  O   UNL     1      -3.843   2.744   1.316  1.00  0.00    -0.503 OA
ATOM     23  H   UNL     1      -4.819   2.497   1.420  1.00  0.00     0.293 HD
ENDBRANCH  17  22
ENDBRANCH   2  11
ENDBRANCH   1   2
BRANCH   1  24
ATOM     24  N   UNL     1      -0.778  -2.623  -1.588  1.00  0.00    -0.315 NA
ATOM     25  H   UNL     1      -0.730  -3.059  -2.540  1.00  0.00     0.122 HD
BRANCH  24  26
ATOM     26  C   UNL     1      -2.180  -2.261  -1.349  1.00  0.00     0.086 CG0
ATOM     27  G   UNL     1      -2.412  -1.902   0.123  1.00  0.00     0.000 G0
ENDBRANCH  24  26
ENDBRANCH   1  24
TORSDOF 4
