REMARK SMILES O=c1n(CCCN2CCN(c3cccc(Cl)c3)CC2)nc2ccccn12
REMARK SMILES IDX 6 1 7 2 10 3 9 4 18 5 8 6 19 7 11 8 16 9 15 10 14 11 17 12
REMARK SMILES IDX 13 13 12 14 5 15 4 16 3 17 20 18 2 19 21 20 26 21 1 22 22 23
REMARK SMILES IDX 25 24 23 25 24 26
REMARK H PARENT
REMARK Flexibility Score: inf
ROOT
ATOM      1  C   UNL     1       0.708   0.309   0.684  1.00  0.00     0.086 C 
ENDROOT
BRANCH   1   2
ATOM      2  N   UNL     1      -0.232   1.069  -0.172  1.00  0.00    -0.300 NA
ATOM      3  N   UNL     1      -3.083   0.604  -0.629  1.00  0.00    -0.369 N 
ATOM      4  C   UNL     1      -2.091  -0.420  -0.981  1.00  0.00     0.132 C 
ATOM      5  C   UNL     1      -2.610   1.906  -0.144  1.00  0.00     0.132 C 
ATOM      6  C   UNL     1      -0.739   0.235  -1.292  1.00  0.00     0.106 C 
ATOM      7  C   UNL     1      -1.299   1.727   0.630  1.00  0.00     0.106 C 
BRANCH   3   8
ATOM      8  C   UNL     1      -4.494   0.346  -0.802  1.00  0.00     0.038 A 
ATOM      9  Cl  UNL     1      -7.019  -2.810  -0.516  1.00  0.00    -0.084 Cl
ATOM     10  C   UNL     1      -6.383  -1.195  -0.773  1.00  0.00     0.043 A 
ATOM     11  C   UNL     1      -7.242  -0.157  -1.144  1.00  0.00     0.020 A 
ATOM     12  C   UNL     1      -5.016  -0.947  -0.603  1.00  0.00     0.046 A 
ATOM     13  C   UNL     1      -6.737   1.128  -1.346  1.00  0.00     0.004 A 
ATOM     14  C   UNL     1      -5.372   1.381  -1.178  1.00  0.00     0.026 A 
ENDBRANCH   3   8
ENDBRANCH   1   2
BRANCH   1  15
ATOM     15  C   UNL     1       1.522   1.246   1.593  1.00  0.00     0.039 C 
BRANCH  15  16
ATOM     16  C   UNL     1       2.548   0.484   2.440  1.00  0.00     0.151 C 
BRANCH  16  17
ATOM     17  N   UNL     1       3.595  -0.097   1.602  1.00  0.00    -0.213 N 
ATOM     18  N   UNL     1       4.557   0.607   1.013  1.00  0.00    -0.150 NA
ATOM     19  C   UNL     1       3.741  -1.393   1.248  1.00  0.00     0.350 A 
ATOM     20  C   UNL     1       5.279  -0.293   0.311  1.00  0.00     0.161 A 
ATOM     21  N   UNL     1       4.797  -1.541   0.437  1.00  0.00    -0.250 N 
ATOM     22  O   UNL     1       2.985  -2.331   1.620  1.00  0.00    -0.246 OA
ATOM     23  C   UNL     1       6.397  -0.035  -0.477  1.00  0.00     0.050 A 
ATOM     24  C   UNL     1       5.336  -2.626  -0.173  1.00  0.00     0.098 A 
ATOM     25  C   UNL     1       6.994  -1.127  -1.131  1.00  0.00     0.005 A 
ATOM     26  C   UNL     1       6.466  -2.427  -0.981  1.00  0.00     0.019 A 
ENDBRANCH  16  17
ENDBRANCH  15  16
ENDBRANCH   1  15
TORSDOF 5
