REMARK SMILES NC1CC1c1ccccc1
REMARK SMILES IDX 2 1 3 2 4 3 1 4 5 7 6 8 10 9 7 10 9 11 8 12
REMARK H PARENT 1 5 1 6
REMARK Flexibility Score: inf
ROOT
ATOM      1  C   UNL     1      -2.031   0.542   0.246  1.00  0.00     0.058 C 
ATOM      2  C   UNL     1      -1.998  -0.931  -0.147  1.00  0.00     0.029 C 
ATOM      3  C   UNL     1      -0.967  -0.377   0.833  1.00  0.00     0.037 C 
ENDROOT
BRANCH   1   4
ATOM      4  N   UNL     1      -3.100   0.851   1.185  1.00  0.00    -0.327 NA
ATOM      5  H   UNL     1      -2.821   1.722   1.692  1.00  0.00     0.119 HD
ATOM      6  H   UNL     1      -3.947   1.091   0.621  1.00  0.00     0.119 HD
ENDBRANCH   1   4
BRANCH   3   7
ATOM      7  C   UNL     1       0.451  -0.220   0.313  1.00  0.00    -0.043 A 
ATOM      8  C   UNL     1       0.761   0.202  -0.999  1.00  0.00     0.004 A 
ATOM      9  C   UNL     1       1.507  -0.514   1.193  1.00  0.00     0.004 A 
ATOM     10  C   UNL     1       2.093   0.324  -1.407  1.00  0.00     0.000 A 
ATOM     11  C   UNL     1       2.836  -0.389   0.779  1.00  0.00     0.000 A 
ATOM     12  C   UNL     1       3.129   0.029  -0.520  1.00  0.00     0.000 A 
ENDBRANCH   3   7
TORSDOF 2
