REMARK SMILES NCCS
REMARK SMILES IDX 2 1 1 2 3 5 4 6
REMARK H PARENT 1 3 1 4 4 7
REMARK Flexibility Score: inf
ROOT
ATOM      1  C   UNL     1      -0.311   0.288   0.534  1.00  0.00     0.088 C 
ENDROOT
BRANCH   1   2
ATOM      2  N   UNL     1      -1.453   0.710  -0.271  1.00  0.00    -0.330 NA
ATOM      3  H   UNL     1      -2.011   1.385   0.300  1.00  0.00     0.118 HD
ATOM      4  H   UNL     1      -2.066  -0.122  -0.429  1.00  0.00     0.118 HD
ENDBRANCH   1   2
BRANCH   1   5
ATOM      5  C   UNL     1       0.608  -0.614  -0.288  1.00  0.00     0.081 C 
BRANCH   5   6
ATOM      6  S   UNL     1       2.037  -1.142   0.706  1.00  0.00    -0.178 SA
ATOM      7  H   UNL     1       2.585   0.154   0.753  1.00  0.00     0.102 HD
ENDBRANCH   5   6
ENDBRANCH   1   5
TORSDOF 3
