REMARK SMILES COC(=O)C1=C(C)NC(C)=C(C(=O)OCC(C)C)C1c1ccccc1[N+](=O)[O-]
REMARK SMILES IDX 12 1 13 2 11 3 5 4 6 5 19 6 7 7 8 8 9 9 10 11 3 12 4 13 2 14
REMARK SMILES IDX 1 15 20 16 21 17 25 18 22 19 24 20 23 21 26 22 28 23 27 24
REMARK SMILES IDX 14 25 15 26 16 27 17 28 18 29
REMARK H PARENT 8 10
REMARK Flexibility Score: inf
ROOT
ATOM      1  C   UNL     1       1.679   1.203  -0.377  1.00  0.00     0.336 C 
ATOM      2  O   UNL     1       2.054   0.945  -1.553  1.00  0.00    -0.246 OA
ENDROOT
BRANCH   1   3
ATOM      3  C   UNL     1       0.257   1.529  -0.116  1.00  0.00     0.069 C 
ATOM      4  C   UNL     1      -2.222   1.177  -0.695  1.00  0.00     0.069 C 
ATOM      5  C   UNL     1      -2.531   2.151   0.195  1.00  0.00     0.023 C 
ATOM      6  C   UNL     1      -0.787   0.670  -0.813  1.00  0.00     0.105 C 
ATOM      7  C   UNL     1      -3.929   2.687   0.361  1.00  0.00     0.065 C 
ATOM      8  N   UNL     1      -1.501   2.712   1.021  1.00  0.00    -0.362 N 
ATOM      9  C   UNL     1      -0.109   2.474   0.775  1.00  0.00     0.023 C 
ATOM     10  H   UNL     1      -1.770   3.381   1.777  1.00  0.00     0.166 HD
ATOM     11  C   UNL     1       0.897   3.309   1.524  1.00  0.00     0.065 C 
BRANCH   4  12
ATOM     12  C   UNL     1      -3.248   0.513  -1.544  1.00  0.00     0.336 C 
ATOM     13  O   UNL     1      -2.912   0.033  -2.661  1.00  0.00    -0.246 OA
BRANCH  12  14
ATOM     14  O   UNL     1      -4.564   0.363  -1.093  1.00  0.00    -0.466 OA
ATOM     15  C   UNL     1      -5.561  -0.319  -1.843  1.00  0.00     0.282 C 
ENDBRANCH  12  14
ENDBRANCH   4  12
BRANCH   6  16
ATOM     16  C   UNL     1      -0.684  -0.755  -0.280  1.00  0.00     0.042 A 
ATOM     17  C   UNL     1      -1.111  -1.018   1.040  1.00  0.00     0.012 A 
ATOM     18  C   UNL     1      -0.051  -1.798  -1.011  1.00  0.00     0.273 A 
ATOM     19  C   UNL     1      -0.926  -2.275   1.616  1.00  0.00     0.001 A 
ATOM     20  C   UNL     1       0.148  -3.048  -0.404  1.00  0.00     0.086 A 
ATOM     21  C   UNL     1      -0.291  -3.286   0.897  1.00  0.00     0.007 A 
BRANCH  18  22
ATOM     22  N   UNL     1       0.414  -1.609  -2.354  1.00  0.00     0.063 N 
ATOM     23  O   UNL     1       1.658  -2.074  -2.712  1.00  0.00    -0.258 OA
ATOM     24  O   UNL     1      -0.390  -1.289  -3.252  1.00  0.00    -0.258 OA
ENDBRANCH  18  22
ENDBRANCH   6  16
ENDBRANCH   1   3
BRANCH   1  25
ATOM     25  O   UNL     1       2.583   1.108   0.688  1.00  0.00    -0.462 OA
BRANCH  25  26
ATOM     26  C   UNL     1       3.868   0.500   0.572  1.00  0.00     0.236 C 
BRANCH  26  27
ATOM     27  C   UNL     1       3.742  -1.030   0.436  1.00  0.00     0.021 C 
ATOM     28  C   UNL     1       5.127  -1.668   0.277  1.00  0.00     0.011 C 
ATOM     29  C   UNL     1       3.010  -1.635   1.641  1.00  0.00     0.011 C 
ENDBRANCH  26  27
ENDBRANCH  25  26
ENDBRANCH   1  25
TORSDOF 8
