REMARK SMILES CC(C)OP(=O)(F)OC(C)C
REMARK SMILES IDX 5 1 7 2 6 3 4 4 2 5 1 6 3 7 8 8 9 9 10 10 11 11
REMARK H PARENT
REMARK Flexibility Score: inf
ROOT
ATOM      1  P   UNL     1       0.487   0.136  -1.480  1.00  0.00     0.513 P 
ATOM      2  F   UNL     1       0.873  -1.494  -1.560  1.00  0.00    -0.132 F 
ATOM      3  O   UNL     1       1.238   0.870  -2.568  1.00  0.00    -0.223 OA
ENDROOT
BRANCH   1   4
ATOM      4  O   UNL     1      -1.188   0.324  -1.741  1.00  0.00    -0.281 OA
BRANCH   4   5
ATOM      5  C   UNL     1      -1.912  -0.309  -0.702  1.00  0.00     0.124 C 
ATOM      6  C   UNL     1      -2.444   0.751   0.266  1.00  0.00     0.039 C 
ATOM      7  C   UNL     1      -3.076  -1.079  -1.326  1.00  0.00     0.039 C 
ENDBRANCH   4   5
ENDBRANCH   1   4
BRANCH   1   8
ATOM      8  O   UNL     1       0.908   0.801   0.037  1.00  0.00    -0.281 OA
BRANCH   8   9
ATOM      9  C   UNL     1       2.120   0.236   0.496  1.00  0.00     0.124 C 
ATOM     10  C   UNL     1       2.930   1.334   1.186  1.00  0.00     0.039 C 
ATOM     11  C   UNL     1       1.815  -0.889   1.490  1.00  0.00     0.039 C 
ENDBRANCH   8   9
ENDBRANCH   1   8
TORSDOF 4
