REMARK SMILES COc1ccc(CCN2CCC(Nc3nc4ccccc4n3Cc3ccc(F)cc3)CC2)cc1
REMARK SMILES IDX 9 1 10 2 11 3 12 4 31 5 32 6 8 7 7 8 6 9 3 10 4 11 34 12
REMARK SMILES IDX 5 13 33 14 2 15 1 16 13 17 14 19 15 20 22 21 16 22 21 23
REMARK SMILES IDX 17 24 20 25 18 26 19 27 23 28 24 29 25 30 30 31 26 32 29 33
REMARK SMILES IDX 27 34 28 35
REMARK H PARENT 13 18
REMARK Flexibility Score: inf
ROOT
ATOM      1  N   UNL     1       2.166   0.394  -0.021  1.00  0.00    -0.303 NA
ATOM      2  C   UNL     1       1.493   0.392   1.295  1.00  0.00     0.086 C 
ATOM      3  C   UNL     1       0.072   0.953   1.176  1.00  0.00     0.040 C 
ATOM      4  C   UNL     1      -0.746   0.146   0.157  1.00  0.00     0.084 C 
ATOM      5  C   UNL     1       0.006   0.080  -1.182  1.00  0.00     0.040 C 
ATOM      6  C   UNL     1       1.423  -0.463  -0.972  1.00  0.00     0.086 C 
ENDROOT
BRANCH   1   7
ATOM      7  C   UNL     1       3.567  -0.063   0.114  1.00  0.00     0.089 C 
BRANCH   7   8
ATOM      8  C   UNL     1       4.441   0.556  -0.984  1.00  0.00     0.051 C 
BRANCH   8   9
ATOM      9  C   UNL     1       5.882   0.159  -0.803  1.00  0.00    -0.046 A 
ATOM     10  C   UNL     1       8.559  -0.623  -0.399  1.00  0.00     0.118 A 
ATOM     11  C   UNL     1       7.690  -1.425  -1.163  1.00  0.00     0.046 A 
ATOM     12  C   UNL     1       8.073   0.563   0.164  1.00  0.00     0.046 A 
ATOM     13  C   UNL     1       6.361  -1.038  -1.358  1.00  0.00     0.007 A 
ATOM     14  C   UNL     1       6.745   0.951  -0.030  1.00  0.00     0.007 A 
BRANCH  10  15
ATOM     15  O   UNL     1       9.900  -0.967  -0.175  1.00  0.00    -0.497 OA
ATOM     16  C   UNL     1      10.523  -2.142  -0.682  1.00  0.00     0.278 C 
ENDBRANCH  10  15
ENDBRANCH   8   9
ENDBRANCH   7   8
ENDBRANCH   1   7
BRANCH   4  17
ATOM     17  N   UNL     1      -2.067   0.755  -0.027  1.00  0.00    -0.353 N 
ATOM     18  H   UNL     1      -2.244   1.313  -0.891  1.00  0.00     0.163 HD
BRANCH  17  19
ATOM     19  C   UNL     1      -3.122   0.579   0.932  1.00  0.00     0.204 A 
ATOM     20  N   UNL     1      -2.955  -0.135   2.078  1.00  0.00    -0.213 NA
ATOM     21  N   UNL     1      -4.378   1.091   0.788  1.00  0.00    -0.306 N 
ATOM     22  C   UNL     1      -4.164  -0.060   2.660  1.00  0.00     0.091 A 
ATOM     23  C   UNL     1      -5.024   0.670   1.891  1.00  0.00     0.070 A 
ATOM     24  C   UNL     1      -4.559  -0.632   3.867  1.00  0.00     0.031 A 
ATOM     25  C   UNL     1      -6.351   0.883   2.272  1.00  0.00     0.028 A 
ATOM     26  C   UNL     1      -5.889  -0.436   4.281  1.00  0.00     0.002 A 
ATOM     27  C   UNL     1      -6.781   0.318   3.487  1.00  0.00     0.002 A 
BRANCH  21  28
ATOM     28  C   UNL     1      -4.948   1.830  -0.343  1.00  0.00     0.161 C 
BRANCH  28  29
ATOM     29  C   UNL     1      -5.670   0.890  -1.273  1.00  0.00    -0.028 A 
ATOM     30  C   UNL     1      -4.946  -0.003  -2.081  1.00  0.00     0.008 A 
ATOM     31  C   UNL     1      -7.075   0.876  -1.325  1.00  0.00     0.008 A 
ATOM     32  C   UNL     1      -5.616  -0.892  -2.927  1.00  0.00     0.039 A 
ATOM     33  C   UNL     1      -7.741  -0.015  -2.172  1.00  0.00     0.039 A 
ATOM     34  C   UNL     1      -7.013  -0.899  -2.972  1.00  0.00     0.123 A 
ATOM     35  F   UNL     1      -7.661  -1.762  -3.793  1.00  0.00    -0.207 F 
ENDBRANCH  28  29
ENDBRANCH  21  28
ENDBRANCH  17  19
ENDBRANCH   4  17
TORSDOF 8
