REMARK SMILES CCCc1cc(=O)[nH]c(=S)[nH]1
REMARK SMILES IDX 3 1 2 2 1 3 4 4 5 5 11 6 6 7 9 8 7 10 8 11 10 12
REMARK H PARENT 11 9 8 13
REMARK Flexibility Score: inf
ROOT
ATOM      1  C   UNL     1       1.053  -0.260   1.280  1.00  0.00     0.054 C 
ENDROOT
BRANCH   1   2
ATOM      2  C   UNL     1       1.992   0.740   0.592  1.00  0.00     0.003 C 
ATOM      3  C   UNL     1       2.363   0.309  -0.827  1.00  0.00     0.004 C 
ENDBRANCH   1   2
BRANCH   1   4
ATOM      4  C   UNL     1      -0.311  -0.279   0.640  1.00  0.00     0.023 A 
ATOM      5  C   UNL     1      -0.661  -1.300  -0.251  1.00  0.00     0.093 A 
ATOM      6  N   UNL     1      -1.202   0.721   0.897  1.00  0.00    -0.336 N 
ATOM      7  C   UNL     1      -1.922  -1.270  -0.843  1.00  0.00     0.251 A 
ATOM      8  C   UNL     1      -2.431   0.734   0.309  1.00  0.00     0.177 A 
ATOM      9  H   UNL     1      -0.935   1.489   1.555  1.00  0.00     0.169 HD
ATOM     10  O   UNL     1      -2.261  -2.179  -1.647  1.00  0.00    -0.269 OA
ATOM     11  N   UNL     1      -2.785  -0.258  -0.554  1.00  0.00    -0.299 N 
ATOM     12  S   UNL     1      -3.484   1.947   0.639  1.00  0.00    -0.040 S 
ATOM     13  H   UNL     1      -3.729  -0.247  -1.005  1.00  0.00     0.172 HD
ENDBRANCH   1   4
TORSDOF 2
