REMARK SMILES CC(C)NCC(O)COc1cccc2[nH]ccc12
REMARK SMILES IDX 6 1 5 2 4 3 2 5 1 6 3 7 7 8 8 10 9 11 10 12 11 13 18 14
REMARK SMILES IDX 12 15 14 16 17 17 13 18 15 19 16 20
REMARK H PARENT 4 4 7 9 15 21
REMARK Flexibility Score: inf
ROOT
ATOM      1  C   UNL     1      -0.917   0.177  -0.707  1.00  0.00     0.165 C 
ENDROOT
BRANCH   1   2
ATOM      2  C   UNL     1      -2.265  -0.526  -0.914  1.00  0.00     0.116 C 
BRANCH   2   3
ATOM      3  N   UNL     1      -3.216   0.392  -1.564  1.00  0.00    -0.312 NA
ATOM      4  H   UNL     1      -3.707  -0.107  -2.344  1.00  0.00     0.123 HD
BRANCH   3   5
ATOM      5  C   UNL     1      -4.209   0.954  -0.628  1.00  0.00     0.047 C 
ATOM      6  C   UNL     1      -4.727   2.279  -1.189  1.00  0.00     0.024 C 
ATOM      7  C   UNL     1      -5.377  -0.018  -0.393  1.00  0.00     0.024 C 
ENDBRANCH   3   5
ENDBRANCH   2   3
ENDBRANCH   1   2
BRANCH   1   8
ATOM      8  O   UNL     1      -1.087   1.267   0.163  1.00  0.00    -0.388 OA
ATOM      9  H   UNL     1      -0.344   1.900  -0.018  1.00  0.00     0.211 HD
ENDBRANCH   1   8
BRANCH   1  10
ATOM     10  C   UNL     1       0.113  -0.796  -0.122  1.00  0.00     0.262 C 
BRANCH  10  11
ATOM     11  O   UNL     1       1.374  -0.145  -0.002  1.00  0.00    -0.490 OA
BRANCH  11  12
ATOM     12  C   UNL     1       2.531  -0.754   0.505  1.00  0.00     0.128 A 
ATOM     13  C   UNL     1       2.568  -2.098   0.948  1.00  0.00     0.047 A 
ATOM     14  C   UNL     1       3.717  -0.022   0.586  1.00  0.00     0.041 A 
ATOM     15  C   UNL     1       3.766  -2.655   1.449  1.00  0.00     0.006 A 
ATOM     16  C   UNL     1       4.877  -0.565   1.072  1.00  0.00     0.049 A 
ATOM     17  C   UNL     1       3.991   1.285   0.239  1.00  0.00     0.032 A 
ATOM     18  C   UNL     1       4.939  -1.885   1.515  1.00  0.00     0.027 A 
ATOM     19  N   UNL     1       5.873   0.335   1.049  1.00  0.00    -0.361 N 
ATOM     20  C   UNL     1       5.337   1.468   0.541  1.00  0.00     0.083 A 
ATOM     21  H   UNL     1       6.860   0.194   1.360  1.00  0.00     0.166 HD
ENDBRANCH  11  12
ENDBRANCH  10  11
ENDBRANCH   1  10
TORSDOF 7
