REMARK SMILES COC(=O)C1=C(C)NC(C)=C(C(=O)OC(C)C)C1c1cccc2nonc12
REMARK SMILES IDX 5 1 6 2 7 3 8 4 9 5 10 6 11 7 18 8 3 10 4 11 2 12 1 13 19 14
REMARK SMILES IDX 20 15 27 16 21 17 23 18 26 19 22 20 24 21 25 22 12 23 13 24
REMARK SMILES IDX 14 25 15 26 16 27 17 28
REMARK H PARENT 8 9
REMARK Flexibility Score: inf
ROOT
ATOM      1  C   UNL     1      -2.067  -0.749  -0.517  1.00  0.00     0.068 C 
ATOM      2  C   UNL     1      -1.873  -2.089  -0.493  1.00  0.00     0.023 C 
ATOM      3  C   UNL     1      -3.006  -3.073  -0.351  1.00  0.00     0.065 C 
ATOM      4  N   UNL     1      -0.543  -2.611  -0.628  1.00  0.00    -0.362 N 
ATOM      5  C   UNL     1       0.573  -1.781  -0.979  1.00  0.00     0.023 C 
ATOM      6  C   UNL     1       1.856  -2.456  -1.390  1.00  0.00     0.065 C 
ATOM      7  C   UNL     1       0.439  -0.436  -0.940  1.00  0.00     0.068 C 
ATOM      8  C   UNL     1      -0.867   0.186  -0.474  1.00  0.00     0.100 C 
ATOM      9  H   UNL     1      -0.398  -3.644  -0.561  1.00  0.00     0.166 HD
ENDROOT
BRANCH   1  10
ATOM     10  C   UNL     1      -3.421  -0.129  -0.508  1.00  0.00     0.336 C 
ATOM     11  O   UNL     1      -3.566   1.042  -0.060  1.00  0.00    -0.246 OA
BRANCH  10  12
ATOM     12  O   UNL     1      -4.523  -0.807  -1.040  1.00  0.00    -0.466 OA
ATOM     13  C   UNL     1      -5.832  -0.249  -1.062  1.00  0.00     0.282 C 
ENDBRANCH  10  12
ENDBRANCH   1  10
BRANCH   8  14
ATOM     14  C   UNL     1      -0.680   0.742   0.924  1.00  0.00    -0.004 A 
ATOM     15  C   UNL     1      -0.485  -0.106   2.044  1.00  0.00     0.007 A 
ATOM     16  C   UNL     1      -0.633   2.120   1.168  1.00  0.00     0.139 A 
ATOM     17  C   UNL     1      -0.272   0.437   3.333  1.00  0.00     0.003 A 
ATOM     18  C   UNL     1      -0.426   2.633   2.406  1.00  0.00     0.135 A 
ATOM     19  N   UNL     1      -0.762   3.141   0.309  1.00  0.00    -0.049 NA
ATOM     20  C   UNL     1      -0.241   1.830   3.526  1.00  0.00     0.034 A 
ATOM     21  N   UNL     1      -0.427   3.970   2.321  1.00  0.00    -0.050 NA
ATOM     22  O   UNL     1      -0.632   4.214   1.050  1.00  0.00    -0.243 OA
ENDBRANCH   8  14
BRANCH   7  23
ATOM     23  C   UNL     1       1.565   0.490  -1.227  1.00  0.00     0.337 C 
ATOM     24  O   UNL     1       1.325   1.619  -1.736  1.00  0.00    -0.246 OA
BRANCH  23  25
ATOM     25  O   UNL     1       2.875   0.142  -0.879  1.00  0.00    -0.460 OA
BRANCH  25  26
ATOM     26  C   UNL     1       3.982   1.036  -0.975  1.00  0.00     0.170 C 
ATOM     27  C   UNL     1       3.929   2.063   0.160  1.00  0.00     0.052 C 
ATOM     28  C   UNL     1       5.276   0.228  -0.906  1.00  0.00     0.052 C 
ENDBRANCH  25  26
ENDBRANCH  23  25
ENDBRANCH   7  23
TORSDOF 6
