REMARK SMILES CN1CCN2c3ncccc3Cc3ccccc3C2C1
REMARK SMILES IDX 1 1 2 2 3 3 4 4 5 5 19 6 20 7 18 8 17 9 16 10 15 11 14 12
REMARK SMILES IDX 13 13 12 14 11 15 6 16 7 17 8 18 9 19 10 20
REMARK H PARENT
REMARK Flexibility Score: inf
ROOT
ATOM      1  C   UNL     1       3.961   0.702   0.145  1.00  0.00     0.105 C 
ATOM      2  N   UNL     1       3.052   0.215  -0.907  1.00  0.00    -0.302 NA
ATOM      3  C   UNL     1       2.834  -1.243  -0.840  1.00  0.00     0.105 C 
ATOM      4  C   UNL     1       1.910  -1.651   0.314  1.00  0.00     0.134 C 
ATOM      5  N   UNL     1       0.675  -0.863   0.272  1.00  0.00    -0.347 N 
ATOM      6  C   UNL     1       0.821   0.606   0.191  1.00  0.00     0.128 C 
ATOM      7  C   UNL     1       1.782   0.968  -0.961  1.00  0.00     0.114 C 
ATOM      8  C   UNL     1      -0.476   1.407   0.033  1.00  0.00    -0.021 A 
ATOM      9  C   UNL     1      -0.517   2.692   0.610  1.00  0.00     0.006 A 
ATOM     10  C   UNL     1      -1.619   3.528   0.431  1.00  0.00     0.000 A 
ATOM     11  C   UNL     1      -2.699   3.105  -0.339  1.00  0.00     0.000 A 
ATOM     12  C   UNL     1      -2.682   1.843  -0.931  1.00  0.00     0.004 A 
ATOM     13  C   UNL     1      -1.576   0.988  -0.767  1.00  0.00    -0.038 A 
ATOM     14  C   UNL     1      -1.646  -0.400  -1.335  1.00  0.00     0.075 C 
ATOM     15  C   UNL     1      -1.691  -1.361  -0.188  1.00  0.00    -0.001 A 
ATOM     16  C   UNL     1      -0.557  -1.518   0.621  1.00  0.00     0.132 A 
ATOM     17  N   UNL     1      -0.600  -2.367   1.686  1.00  0.00    -0.239 NA
ATOM     18  C   UNL     1      -1.730  -3.046   2.018  1.00  0.00     0.113 A 
ATOM     19  C   UNL     1      -2.888  -2.893   1.254  1.00  0.00     0.021 A 
ATOM     20  C   UNL     1      -2.869  -2.043   0.147  1.00  0.00     0.009 A 
ENDROOT
TORSDOF 0
