REMARK SMILES C=CC[N+]1([C@H]2C[C@H]3[C@@H]4CC[C@H]5C[C@H](O)[C@@H](N6CCOCC6)C[C@]5(C)[C@H]4CC[C@]3(C)[C@H]2OC(C)=O)CCCC1
REMARK SMILES IDX 7 1 6 2 5 3 30 4 28 5 29 6 27 7 26 8 25 9 8 10 9 11 10 12
REMARK SMILES IDX 11 13 12 14 13 15 15 16 22 17 23 18 24 19 4 20 35 21 38 22
REMARK SMILES IDX 36 23 37 24 3 25 2 26 1 27 31 28 32 29 33 30 34 31 16 32
REMARK SMILES IDX 17 33 21 34 18 35 20 36 19 37 14 38
REMARK H PARENT 14 39
REMARK Flexibility Score: inf
ROOT
ATOM      1  C   UNL     1      -1.211  -0.497  -0.384  1.00  0.00     0.008 C 
ATOM      2  C   UNL     1      -2.406  -0.210  -1.277  1.00  0.00     0.073 C 
ATOM      3  C   UNL     1      -3.601  -0.459  -0.315  1.00  0.00     0.228 C 
ATOM      4  C   UNL     1      -3.044  -0.171   1.131  1.00  0.00     0.240 C 
ATOM      5  C   UNL     1      -1.540   0.198   0.943  1.00  0.00     0.014 C 
ATOM      6  C   UNL     1      -1.366   1.752   0.898  1.00  0.00     0.016 C 
ATOM      7  C   UNL     1      -0.593  -0.393   2.015  1.00  0.00     0.011 C 
ATOM      8  C   UNL     1       0.898  -0.220   1.624  1.00  0.00     0.005 C 
ATOM      9  C   UNL     1       1.226  -0.738   0.186  1.00  0.00    -0.001 C 
ATOM     10  C   UNL     1       0.214  -0.188  -0.885  1.00  0.00    -0.003 C 
ATOM     11  C   UNL     1       0.474  -0.824  -2.264  1.00  0.00     0.004 C 
ATOM     12  C   UNL     1       1.929  -0.627  -2.703  1.00  0.00     0.004 C 
ATOM     13  C   UNL     1       2.888  -1.220  -1.655  1.00  0.00    -0.002 C 
ATOM     14  C   UNL     1       4.340  -1.233  -2.163  1.00  0.00     0.037 C 
ATOM     15  C   UNL     1       5.298  -1.913  -1.164  1.00  0.00     0.132 C 
ATOM     16  C   UNL     1       5.184  -1.340   0.295  1.00  0.00     0.086 C 
ATOM     17  C   UNL     1       3.686  -1.281   0.737  1.00  0.00     0.029 C 
ATOM     18  C   UNL     1       2.731  -0.539  -0.255  1.00  0.00    -0.025 C 
ATOM     19  C   UNL     1       3.097   0.977  -0.283  1.00  0.00     0.012 C 
ENDROOT
BRANCH   3  20
ATOM     20  N   UNL     1      -4.936   0.156  -0.695  1.00  0.00    -0.315 N 
ATOM     21  C   UNL     1      -4.938   1.643  -0.691  1.00  0.00     0.264 C 
ATOM     22  C   UNL     1      -5.299  -0.171  -2.101  1.00  0.00     0.264 C 
ATOM     23  C   UNL     1      -5.945   2.119  -1.739  1.00  0.00     0.067 C 
ATOM     24  C   UNL     1      -6.252   0.906  -2.596  1.00  0.00     0.067 C 
BRANCH  20  25
ATOM     25  C   UNL     1      -6.038  -0.321   0.217  1.00  0.00     0.292 C 
BRANCH  25  26
ATOM     26  C   UNL     1      -6.171  -1.827   0.319  1.00  0.00     0.025 C 
ATOM     27  C   UNL     1      -7.138  -2.498  -0.314  1.00  0.00     0.010 C 
ENDBRANCH  25  26
ENDBRANCH  20  25
ENDBRANCH   3  20
BRANCH   4  28
ATOM     28  O   UNL     1      -3.762   0.856   1.817  1.00  0.00    -0.456 OA
BRANCH  28  29
ATOM     29  C   UNL     1      -3.809   0.979   3.209  1.00  0.00     0.303 C 
ATOM     30  C   UNL     1      -4.593   2.092   3.814  1.00  0.00     0.139 C 
ATOM     31  O   UNL     1      -3.243   0.135   3.955  1.00  0.00    -0.253 OA
ENDBRANCH  28  29
ENDBRANCH   4  28
BRANCH  16  32
ATOM     32  N   UNL     1       5.835  -0.008   0.525  1.00  0.00    -0.293 NA
ATOM     33  C   UNL     1       6.237   0.163   1.939  1.00  0.00     0.113 C 
ATOM     34  C   UNL     1       7.006   0.296  -0.330  1.00  0.00     0.113 C 
ATOM     35  C   UNL     1       6.673   1.621   2.192  1.00  0.00     0.175 C 
ATOM     36  C   UNL     1       7.710   1.593   0.124  1.00  0.00     0.175 C 
ATOM     37  O   UNL     1       6.879   2.339   0.989  1.00  0.00    -0.379 OA
ENDBRANCH  16  32
BRANCH  15  38
ATOM     38  O   UNL     1       5.120  -3.311  -1.185  1.00  0.00    -0.391 OA
ATOM     39  H   UNL     1       4.276  -3.538  -0.723  1.00  0.00     0.211 HD
ENDBRANCH  15  38
TORSDOF 7
