REMARK SMILES CN1C[C@H](C(=O)N[C@]2(C)O[C@@]3(O)[C@@H]4CCCN4C(=O)[C@H](Cc4ccccc4)N3C2=O)C[C@@H]2c3cccc4[nH]cc(c34)C[C@H]21
REMARK SMILES IDX 13 1 14 2 15 3 16 4 17 5 18 6 19 7 20 8 28 9 29 10 30 11
REMARK SMILES IDX 8 12 9 13 10 14 11 15 12 16 21 18 22 19 23 20 27 21 24 22
REMARK SMILES IDX 26 23 25 24 7 25 5 26 6 28 4 29 3 30 31 31 2 32 32 33 1 34
REMARK SMILES IDX 43 35 33 36 42 37 34 38 41 39 40 40 35 41 37 42 39 43 36 44
REMARK SMILES IDX 38 45
REMARK H PARENT 12 17 7 27 38 46
REMARK Flexibility Score: inf
ROOT
ATOM      1  C   UNL     1      -3.655   2.613  -0.795  1.00  0.00     0.168 C 
ATOM      2  C   UNL     1      -3.300   4.057  -0.432  1.00  0.00     0.035 C 
ATOM      3  C   UNL     1      -4.647   4.775  -0.311  1.00  0.00     0.024 C 
ATOM      4  C   UNL     1      -5.681   3.689  -0.017  1.00  0.00     0.120 C 
ATOM      5  N   UNL     1      -5.032   2.439  -0.370  1.00  0.00    -0.330 N 
ATOM      6  C   UNL     1      -5.636   1.145  -0.226  1.00  0.00     0.246 C 
ATOM      7  O   UNL     1      -6.875   1.054  -0.005  1.00  0.00    -0.272 OA
ATOM      8  C   UNL     1      -4.793  -0.109  -0.374  1.00  0.00     0.184 C 
ATOM      9  N   UNL     1      -3.365   0.236  -0.462  1.00  0.00    -0.273 N 
ATOM     10  C   UNL     1      -2.400  -0.476  -1.178  1.00  0.00     0.280 C 
ATOM     11  O   UNL     1      -2.577  -1.637  -1.637  1.00  0.00    -0.269 OA
ATOM     12  C   UNL     1      -1.178   0.334  -1.338  1.00  0.00     0.223 C 
ATOM     13  C   UNL     1      -0.889   0.566  -2.827  1.00  0.00     0.079 C 
ATOM     14  O   UNL     1      -1.453   1.575  -0.701  1.00  0.00    -0.295 OA
ATOM     15  C   UNL     1      -2.775   1.529  -0.150  1.00  0.00     0.276 C 
ENDROOT
BRANCH  15  16
ATOM     16  O   UNL     1      -2.735   1.677   1.250  1.00  0.00    -0.347 OA
ATOM     17  H   UNL     1      -1.918   2.193   1.484  1.00  0.00     0.216 HD
ENDBRANCH  15  16
BRANCH   8  18
ATOM     18  C   UNL     1      -5.001  -1.088   0.801  1.00  0.00     0.071 C 
BRANCH  18  19
ATOM     19  C   UNL     1      -6.309  -1.833   0.701  1.00  0.00    -0.045 A 
ATOM     20  C   UNL     1      -7.363  -1.553   1.589  1.00  0.00     0.004 A 
ATOM     21  C   UNL     1      -6.486  -2.815  -0.289  1.00  0.00     0.004 A 
ATOM     22  C   UNL     1      -8.576  -2.239   1.476  1.00  0.00     0.000 A 
ATOM     23  C   UNL     1      -7.703  -3.495  -0.399  1.00  0.00     0.000 A 
ATOM     24  C   UNL     1      -8.747  -3.206   0.483  1.00  0.00     0.000 A 
ENDBRANCH  18  19
ENDBRANCH   8  18
BRANCH  12  25
ATOM     25  N   UNL     1      -0.039  -0.325  -0.684  1.00  0.00    -0.320 N 
ATOM     26  C   UNL     1       1.235   0.310  -0.498  1.00  0.00     0.227 C 
ATOM     27  H   UNL     1      -0.127  -1.329  -0.402  1.00  0.00     0.166 HD
ATOM     28  O   UNL     1       1.373   1.539  -0.753  1.00  0.00    -0.275 OA
BRANCH  26  29
ATOM     29  C   UNL     1       2.422  -0.517  -0.064  1.00  0.00     0.093 C 
ATOM     30  C   UNL     1       2.941  -1.344  -1.250  1.00  0.00     0.098 C 
ATOM     31  C   UNL     1       3.553   0.349   0.522  1.00  0.00     0.024 C 
ATOM     32  N   UNL     1       4.076  -2.202  -0.845  1.00  0.00    -0.302 NA
ATOM     33  C   UNL     1       4.761  -0.528   0.890  1.00  0.00     0.038 C 
ATOM     34  C   UNL     1       4.457  -3.049  -1.994  1.00  0.00     0.105 C 
ATOM     35  C   UNL     1       5.210  -1.361  -0.372  1.00  0.00     0.068 C 
ATOM     36  C   UNL     1       5.923   0.284   1.461  1.00  0.00    -0.034 A 
ATOM     37  C   UNL     1       6.490  -2.211  -0.060  1.00  0.00     0.057 C 
ATOM     38  C   UNL     1       5.821   1.424   2.294  1.00  0.00     0.005 A 
ATOM     39  C   UNL     1       7.193  -0.227   1.280  1.00  0.00     0.006 A 
ATOM     40  C   UNL     1       7.523  -1.344   0.592  1.00  0.00    -0.021 A 
ATOM     41  C   UNL     1       6.992   2.010   2.845  1.00  0.00     0.002 A 
ATOM     42  C   UNL     1       8.323   0.306   1.809  1.00  0.00     0.046 A 
ATOM     43  C   UNL     1       8.901  -1.481   0.739  1.00  0.00     0.087 A 
ATOM     44  C   UNL     1       8.266   1.447   2.606  1.00  0.00     0.027 A 
ATOM     45  N   UNL     1       9.389  -0.451   1.483  1.00  0.00    -0.361 N 
ATOM     46  H   UNL     1      10.383  -0.294   1.760  1.00  0.00     0.166 HD
ENDBRANCH  26  29
ENDBRANCH  12  25
TORSDOF 5
