REMARK SMILES CC1NCCOC1c1ccccc1
REMARK SMILES IDX 1 1 2 2 3 3 4 4 5 5 6 6 7 7 8 9 9 10 13 11 10 12 12 13 11 14
REMARK H PARENT 3 8
REMARK Flexibility Score: inf
ROOT
ATOM      1  C   UNL     1      -1.253  -2.458   0.540  1.00  0.00     0.027 C 
ATOM      2  C   UNL     1      -1.327  -0.954   0.238  1.00  0.00     0.084 C 
ATOM      3  N   UNL     1      -2.648  -0.644  -0.329  1.00  0.00    -0.309 NA
ATOM      4  C   UNL     1      -2.784   0.799  -0.572  1.00  0.00     0.109 C 
ATOM      5  C   UNL     1      -1.487   1.408  -1.134  1.00  0.00     0.176 C 
ATOM      6  O   UNL     1      -0.683   0.407  -1.727  1.00  0.00    -0.371 OA
ATOM      7  C   UNL     1      -0.188  -0.496  -0.743  1.00  0.00     0.165 C 
ATOM      8  H   UNL     1      -2.750  -1.141  -1.246  1.00  0.00     0.123 HD
ENDROOT
BRANCH   7   9
ATOM      9  C   UNL     1       1.066   0.074  -0.072  1.00  0.00    -0.018 A 
ATOM     10  C   UNL     1       1.463  -0.298   1.231  1.00  0.00     0.006 A 
ATOM     11  C   UNL     1       1.924   0.912  -0.815  1.00  0.00     0.006 A 
ATOM     12  C   UNL     1       2.643   0.204   1.788  1.00  0.00     0.000 A 
ATOM     13  C   UNL     1       3.103   1.410  -0.253  1.00  0.00     0.000 A 
ATOM     14  C   UNL     1       3.459   1.061   1.049  1.00  0.00     0.000 A 
ENDBRANCH   7   9
TORSDOF 1
