REMARK SMILES C[C@]12CC[C@@H]3c4ccc(O)cc4CC[C@H]3[C@@H]1CCC2=O
REMARK SMILES IDX 16 1 17 2 18 3 19 4 20 5 2 6 1 7 3 8 4 9 5 10 6 11 12 12
REMARK SMILES IDX 13 13 14 14 15 15 11 16 9 17 8 18 7 19 10 20
REMARK H PARENT 10 21
REMARK Flexibility Score: inf
ROOT
ATOM      1  C   UNL     1      -1.696  -0.847   0.159  1.00  0.00     0.006 C 
ATOM      2  C   UNL     1      -2.570  -1.894  -0.532  1.00  0.00     0.013 C 
ATOM      3  C   UNL     1      -3.997  -1.482  -0.129  1.00  0.00     0.076 C 
ATOM      4  C   UNL     1      -3.859  -0.040   0.258  1.00  0.00     0.139 C 
ATOM      5  O   UNL     1      -4.790   0.649   0.646  1.00  0.00    -0.299 OA
ATOM      6  C   UNL     1      -2.474   0.471   0.038  1.00  0.00     0.029 C 
ATOM      7  C   UNL     1      -2.453   1.127  -1.371  1.00  0.00     0.020 C 
ATOM      8  C   UNL     1      -1.920   1.439   1.101  1.00  0.00     0.015 C 
ATOM      9  C   UNL     1      -0.393   1.655   0.913  1.00  0.00     0.010 C 
ATOM     10  C   UNL     1       0.423   0.326   0.788  1.00  0.00     0.023 C 
ATOM     11  C   UNL     1       1.906   0.525   0.471  1.00  0.00    -0.041 A 
ATOM     12  C   UNL     1       2.643  -0.508  -0.172  1.00  0.00    -0.041 A 
ATOM     13  C   UNL     1       1.982  -1.753  -0.726  1.00  0.00     0.036 C 
ATOM     14  C   UNL     1       0.560  -1.980  -0.203  1.00  0.00     0.009 C 
ATOM     15  C   UNL     1      -0.221  -0.662  -0.232  1.00  0.00     0.001 C 
ATOM     16  C   UNL     1       4.021  -0.349  -0.389  1.00  0.00     0.050 A 
ATOM     17  C   UNL     1       4.689   0.790   0.059  1.00  0.00     0.115 A 
ATOM     18  C   UNL     1       3.980   1.788   0.731  1.00  0.00     0.046 A 
ATOM     19  C   UNL     1       2.608   1.654   0.947  1.00  0.00     0.008 A 
ENDROOT
BRANCH  17  20
ATOM     20  O   UNL     1       6.058   0.919  -0.165  1.00  0.00    -0.508 OA
ATOM     21  H   UNL     1       6.572   1.733   0.150  1.00  0.00     0.293 HD
ENDBRANCH  17  20
TORSDOF 1
