REMARK SMILES CN(C)CCc1c[nH]c2ccc(C[C@H]3COC(=O)N3)cc12
REMARK SMILES IDX 6 1 7 2 8 3 9 4 10 5 11 6 12 7 20 8 21 9 5 11 4 12 2 13 1 14
REMARK SMILES IDX 3 15 13 16 14 17 15 18 19 19 16 20 17 21 18 23
REMARK H PARENT 8 10 19 22
REMARK Flexibility Score: inf
ROOT
ATOM      1  C   UNL     1      -1.411   0.727  -1.011  1.00  0.00    -0.021 A 
ATOM      2  C   UNL     1      -2.103   1.933  -1.084  1.00  0.00     0.087 A 
ATOM      3  N   UNL     1      -1.625   2.808  -0.171  1.00  0.00    -0.361 N 
ATOM      4  C   UNL     1      -0.629   2.171   0.469  1.00  0.00     0.046 A 
ATOM      5  C   UNL     1       0.185   2.681   1.478  1.00  0.00     0.027 A 
ATOM      6  C   UNL     1       1.200   1.851   1.987  1.00  0.00     0.006 A 
ATOM      7  C   UNL     1       1.380   0.537   1.485  1.00  0.00    -0.045 A 
ATOM      8  C   UNL     1       0.537   0.056   0.459  1.00  0.00     0.014 A 
ATOM      9  C   UNL     1      -0.464   0.901  -0.019  1.00  0.00     0.003 A 
ATOM     10  H   UNL     1      -1.957   3.785  -0.009  1.00  0.00     0.166 HD
ENDROOT
BRANCH   1  11
ATOM     11  C   UNL     1      -1.629  -0.480  -1.875  1.00  0.00     0.053 C 
BRANCH  11  12
ATOM     12  C   UNL     1      -2.161  -1.708  -1.101  1.00  0.00     0.088 C 
BRANCH  12  13
ATOM     13  N   UNL     1      -3.566  -1.620  -0.638  1.00  0.00    -0.309 NA
ATOM     14  C   UNL     1      -4.529  -1.343  -1.715  1.00  0.00     0.104 C 
ATOM     15  C   UNL     1      -3.763  -0.725   0.512  1.00  0.00     0.104 C 
ENDBRANCH  12  13
ENDBRANCH  11  12
ENDBRANCH   1  11
BRANCH   7  16
ATOM     16  C   UNL     1       2.502  -0.322   2.007  1.00  0.00     0.064 C 
BRANCH  16  17
ATOM     17  C   UNL     1       3.835   0.022   1.324  1.00  0.00     0.127 C 
ATOM     18  C   UNL     1       5.017  -0.810   1.902  1.00  0.00     0.260 C 
ATOM     19  N   UNL     1       3.796  -0.317  -0.094  1.00  0.00    -0.315 N 
ATOM     20  O   UNL     1       5.573  -1.507   0.792  1.00  0.00    -0.447 OA
ATOM     21  C   UNL     1       4.854  -1.211  -0.340  1.00  0.00     0.407 C 
ATOM     22  H   UNL     1       3.165   0.097  -0.816  1.00  0.00     0.167 HD
ATOM     23  O   UNL     1       5.113  -1.688  -1.475  1.00  0.00    -0.225 OA
ENDBRANCH  16  17
ENDBRANCH   7  16
TORSDOF 5
