REMARK SMILES Clc1ccc2nsnc2c1NC1=NCCN1
REMARK SMILES IDX 1 1 2 2 10 3 9 4 8 5 7 6 6 7 5 8 4 9 3 10 11 11 12 12 13 14
REMARK SMILES IDX 16 15 14 16 15 17
REMARK H PARENT 11 13 16 18
REMARK Flexibility Score: inf
ROOT
ATOM      1  Cl  UNL     1      -0.376  -2.659  -0.394  1.00  0.00    -0.082 Cl
ATOM      2  C   UNL     1      -1.419  -1.293  -0.015  1.00  0.00     0.067 A 
ATOM      3  C   UNL     1      -1.078   0.022  -0.405  1.00  0.00     0.089 A 
ATOM      4  C   UNL     1      -1.994   1.055  -0.162  1.00  0.00     0.129 A 
ATOM      5  N   UNL     1      -1.764   2.346  -0.516  1.00  0.00    -0.171 NA
ATOM      6  S   UNL     1      -3.153   3.054   0.034  1.00  0.00     0.069 S 
ATOM      7  N   UNL     1      -4.053   1.841   0.707  1.00  0.00    -0.173 NA
ATOM      8  C   UNL     1      -3.226   0.787   0.498  1.00  0.00     0.107 A 
ATOM      9  C   UNL     1      -3.541  -0.510   0.900  1.00  0.00     0.033 A 
ATOM     10  C   UNL     1      -2.638  -1.547   0.637  1.00  0.00     0.025 A 
ENDROOT
BRANCH   3  11
ATOM     11  N   UNL     1       0.159   0.308  -1.074  1.00  0.00    -0.323 N 
ATOM     12  C   UNL     1       1.436   0.068  -0.469  1.00  0.00     0.196 C 
ATOM     13  H   UNL     1       0.132   0.873  -1.952  1.00  0.00     0.170 HD
ATOM     14  N   UNL     1       1.574  -0.362   0.737  1.00  0.00    -0.251 NA
ATOM     15  N   UNL     1       2.654   0.327  -1.134  1.00  0.00    -0.354 N 
ATOM     16  C   UNL     1       2.993  -0.472   1.052  1.00  0.00     0.167 C 
ATOM     17  C   UNL     1       3.726   0.001  -0.215  1.00  0.00     0.139 C 
ATOM     18  H   UNL     1       2.763   0.689  -2.107  1.00  0.00     0.163 HD
ENDBRANCH   3  11
TORSDOF 1
