REMARK SMILES Cn1cc[nH]c1=S
REMARK SMILES IDX 1 1 2 2 3 3 4 4 5 5 6 6 7 7
REMARK H PARENT 5 8
REMARK Flexibility Score: inf
ROOT
ATOM      1  C   UNL     1      -1.875  -0.253   0.124  1.00  0.00     0.152 C 
ATOM      2  N   UNL     1      -0.427  -0.094   0.025  1.00  0.00    -0.327 N 
ATOM      3  C   UNL     1       0.481  -1.077  -0.134  1.00  0.00     0.105 A 
ATOM      4  C   UNL     1       1.737  -0.504  -0.181  1.00  0.00     0.103 A 
ATOM      5  N   UNL     1       1.609   0.830  -0.052  1.00  0.00    -0.337 N 
ATOM      6  C   UNL     1       0.287   1.051   0.072  1.00  0.00     0.176 A 
ATOM      7  S   UNL     1      -0.363   2.544   0.257  1.00  0.00    -0.040 S 
ATOM      8  H   UNL     1       2.377   1.538  -0.048  1.00  0.00     0.168 HD
ENDROOT
TORSDOF 0
