REMARK SMILES CC(=O)[C@H]1CC[C@H]2[C@@H]3C[C@H](C)C4=CC(=O)CC[C@]4(C)[C@H]3[C@@H](O)C[C@]12C
REMARK SMILES IDX 7 1 6 2 5 3 4 4 24 5 25 6 23 7 21 8 20 9 8 10 9 11 10 12
REMARK SMILES IDX 11 13 12 14 13 15 14 16 15 17 16 18 17 19 18 20 19 21 2 22
REMARK SMILES IDX 1 23 3 24 22 25
REMARK H PARENT 22 26
REMARK Flexibility Score: inf
ROOT
ATOM      1  C   UNL     1       1.277  -0.533  -0.888  1.00  0.00    -0.001 C 
ATOM      2  C   UNL     1       2.069  -1.792  -1.235  1.00  0.00     0.005 C 
ATOM      3  C   UNL     1       3.538  -1.338  -1.215  1.00  0.00     0.012 C 
ATOM      4  C   UNL     1       3.531   0.139  -0.752  1.00  0.00     0.062 C 
ATOM      5  C   UNL     1       2.199   0.279   0.029  1.00  0.00    -0.017 C 
ATOM      6  C   UNL     1       2.345  -0.337   1.461  1.00  0.00     0.012 C 
ATOM      7  C   UNL     1       1.666   1.733   0.159  1.00  0.00     0.040 C 
ATOM      8  C   UNL     1       0.161   1.983  -0.237  1.00  0.00     0.119 C 
ATOM      9  C   UNL     1      -0.829   0.729  -0.364  1.00  0.00     0.031 C 
ATOM     10  C   UNL     1      -0.128  -0.657  -0.278  1.00  0.00    -0.000 C 
ATOM     11  C   UNL     1      -1.000  -1.691  -0.988  1.00  0.00     0.012 C 
ATOM     12  C   UNL     1      -2.331  -1.889  -0.239  1.00  0.00     0.013 C 
ATOM     13  C   UNL     1      -3.228  -2.815  -1.097  1.00  0.00     0.012 C 
ATOM     14  C   UNL     1      -3.012  -0.560   0.151  1.00  0.00    -0.058 C 
ATOM     15  C   UNL     1      -4.337  -0.563   0.437  1.00  0.00     0.047 C 
ATOM     16  C   UNL     1      -5.080   0.664   0.762  1.00  0.00     0.155 C 
ATOM     17  O   UNL     1      -6.287   0.581   1.118  1.00  0.00    -0.295 OA
ATOM     18  C   UNL     1      -4.428   2.012   0.683  1.00  0.00     0.081 C 
ATOM     19  C   UNL     1      -3.076   1.939  -0.037  1.00  0.00     0.020 C 
ATOM     20  C   UNL     1      -2.193   0.732   0.437  1.00  0.00    -0.005 C 
ATOM     21  C   UNL     1      -1.931   0.803   1.970  1.00  0.00     0.016 C 
ENDROOT
BRANCH   4  22
ATOM     22  C   UNL     1       4.777   0.607  -0.012  1.00  0.00     0.133 C 
ATOM     23  C   UNL     1       6.011  -0.244   0.114  1.00  0.00     0.088 C 
ATOM     24  O   UNL     1       4.781   1.720   0.493  1.00  0.00    -0.300 OA
ENDBRANCH   4  22
BRANCH   8  25
ATOM     25  O   UNL     1      -0.358   2.998   0.592  1.00  0.00    -0.393 OA
ATOM     26  H   UNL     1       0.102   3.847   0.347  1.00  0.00     0.210 HD
ENDBRANCH   8  25
TORSDOF 2
