REMARK SMILES CN1CCN(C2=Nc3ccccc3Oc3ccc(Cl)cc32)CC1
REMARK SMILES IDX 1 1 2 2 3 3 4 4 5 5 22 6 23 7 6 8 7 9 8 10 9 11 10 12 11 13
REMARK SMILES IDX 12 14 13 15 14 16 15 17 21 18 20 19 18 20 19 21 17 22 16 23
REMARK H PARENT
REMARK Flexibility Score: inf
ROOT
ATOM      1  C   UNL     1       5.104  -1.300  -0.210  1.00  0.00     0.105 C 
ATOM      2  N   UNL     1       3.670  -0.977  -0.264  1.00  0.00    -0.303 NA
ATOM      3  C   UNL     1       3.241  -0.303   0.984  1.00  0.00     0.105 C 
ATOM      4  C   UNL     1       1.962   0.550   0.818  1.00  0.00     0.133 C 
ATOM      5  N   UNL     1       1.178   0.136  -0.355  1.00  0.00    -0.353 N 
ATOM      6  C   UNL     1       1.850  -0.120  -1.635  1.00  0.00     0.133 C 
ATOM      7  C   UNL     1       3.367  -0.168  -1.454  1.00  0.00     0.105 C 
ATOM      8  C   UNL     1      -0.260   0.066  -0.285  1.00  0.00     0.140 C 
ATOM      9  N   UNL     1      -0.851  -0.926  -0.886  1.00  0.00    -0.227 NA
ATOM     10  C   UNL     1      -2.238  -1.276  -0.933  1.00  0.00     0.108 A 
ATOM     11  C   UNL     1      -2.684  -2.023  -2.033  1.00  0.00     0.032 A 
ATOM     12  C   UNL     1      -3.980  -2.542  -2.064  1.00  0.00     0.003 A 
ATOM     13  C   UNL     1      -4.835  -2.347  -0.980  1.00  0.00     0.004 A 
ATOM     14  C   UNL     1      -4.396  -1.624   0.131  1.00  0.00     0.049 A 
ATOM     15  C   UNL     1      -3.108  -1.072   0.159  1.00  0.00     0.153 A 
ATOM     16  O   UNL     1      -2.737  -0.343   1.287  1.00  0.00    -0.454 OA
ATOM     17  C   UNL     1      -2.129   0.908   1.211  1.00  0.00     0.138 A 
ATOM     18  C   UNL     1      -1.010   1.157   0.392  1.00  0.00     0.061 A 
ATOM     19  C   UNL     1      -0.522   2.475   0.293  1.00  0.00     0.036 A 
ATOM     20  C   UNL     1      -1.097   3.509   1.035  1.00  0.00     0.042 A 
ATOM     21  Cl  UNL     1      -0.464   5.140   0.908  1.00  0.00    -0.084 Cl
ATOM     22  C   UNL     1      -2.165   3.239   1.891  1.00  0.00     0.024 A 
ATOM     23  C   UNL     1      -2.676   1.944   1.979  1.00  0.00     0.049 A 
ENDROOT
TORSDOF 0
