REMARK SMILES CC(C)NCC(O)c1cc(O)cc(O)c1
REMARK SMILES IDX 5 1 4 2 2 4 1 5 3 6 6 7 7 8 8 10 9 11 15 12 10 13 13 14
REMARK SMILES IDX 12 15 11 16 14 18
REMARK H PARENT 4 3 7 9 11 17 14 19
REMARK Flexibility Score: inf
ROOT
ATOM      1  C   UNL     1      -1.061   0.618   1.378  1.00  0.00     0.117 C 
ENDROOT
BRANCH   1   2
ATOM      2  N   UNL     1      -1.538  -0.432   0.464  1.00  0.00    -0.312 NA
ATOM      3  H   UNL     1      -1.858  -1.231   1.062  1.00  0.00     0.123 HD
BRANCH   2   4
ATOM      4  C   UNL     1      -2.656   0.041  -0.376  1.00  0.00     0.047 C 
ATOM      5  C   UNL     1      -3.551  -1.136  -0.791  1.00  0.00     0.024 C 
ATOM      6  C   UNL     1      -2.106   0.729  -1.632  1.00  0.00     0.024 C 
ENDBRANCH   2   4
ENDBRANCH   1   2
BRANCH   1   7
ATOM      7  C   UNL     1       0.303   0.222   1.973  1.00  0.00     0.158 C 
BRANCH   7   8
ATOM      8  O   UNL     1       0.745   1.173   2.910  1.00  0.00    -0.387 OA
ATOM      9  H   UNL     1       0.751   2.062   2.469  1.00  0.00     0.211 HD
ENDBRANCH   7   8
BRANCH   7  10
ATOM     10  C   UNL     1       1.349   0.007   0.893  1.00  0.00    -0.011 A 
ATOM     11  C   UNL     1       1.745   1.061   0.048  1.00  0.00     0.052 A 
ATOM     12  C   UNL     1       1.923  -1.264   0.712  1.00  0.00     0.052 A 
ATOM     13  C   UNL     1       2.696   0.847  -0.958  1.00  0.00     0.119 A 
ATOM     14  C   UNL     1       2.874  -1.479  -0.291  1.00  0.00     0.119 A 
ATOM     15  C   UNL     1       3.259  -0.421  -1.125  1.00  0.00     0.092 A 
BRANCH  13  16
ATOM     16  O   UNL     1       3.088   1.887  -1.798  1.00  0.00    -0.508 OA
ATOM     17  H   UNL     1       2.699   2.818  -1.705  1.00  0.00     0.293 HD
ENDBRANCH  13  16
BRANCH  14  18
ATOM     18  O   UNL     1       3.428  -2.747  -0.452  1.00  0.00    -0.508 OA
ATOM     19  H   UNL     1       4.118  -2.936  -1.169  1.00  0.00     0.293 HD
ENDBRANCH  14  18
ENDBRANCH   7  10
ENDBRANCH   1   7
TORSDOF 7
