REMARK SMILES Clc1ccc2c(c1)CCc1cccnc1C2=C1CCNCC1
REMARK SMILES IDX 16 1 17 2 18 3 19 4 20 5 21 6 22 7 5 9 1 10 2 11 7 12 3 13
REMARK SMILES IDX 6 14 4 15 8 16 15 18 10 19 14 20 11 21 13 22 12 23 9 24
REMARK H PARENT 20 8
REMARK Flexibility Score: 80.00
ROOT
ATOM      1  C   UNL     1       0.121  -0.085  -0.345  1.00  0.00     0.007 C 
ATOM      2  C   UNL     1       1.436   0.040  -0.003  1.00  0.00    -0.058 C 
ATOM      3  C   UNL     1       2.199  -1.129   0.602  1.00  0.00     0.047 C 
ATOM      4  C   UNL     1       3.367  -0.677   1.486  1.00  0.00     0.085 C 
ATOM      5  N   UNL     1       4.191   0.335   0.820  1.00  0.00    -0.316 NA
ATOM      6  C   UNL     1       3.400   1.545   0.582  1.00  0.00     0.085 C 
ATOM      7  C   UNL     1       2.231   1.282  -0.375  1.00  0.00     0.047 C 
ATOM      8  H   UNL     1       4.530  -0.043  -0.097  1.00  0.00     0.122 HD
ENDROOT
BRANCH   1   9
ATOM      9  C   UNL     1      -0.650  -1.297  -0.004  1.00  0.00    -0.013 A 
ATOM     10  Cl  UNL     1      -3.103  -4.995   1.027  1.00  0.00    -0.084 Cl
ATOM     11  C   UNL     1      -2.158  -3.572   0.632  1.00  0.00     0.041 A 
ATOM     12  C   UNL     1      -2.414  -2.359   1.280  1.00  0.00     0.024 A 
ATOM     13  C   UNL     1      -1.154  -3.647  -0.339  1.00  0.00     0.021 A 
ATOM     14  C   UNL     1      -1.657  -1.218   0.969  1.00  0.00    -0.038 A 
ATOM     15  C   UNL     1      -0.406  -2.512  -0.662  1.00  0.00     0.010 A 
BRANCH  14  16
ATOM     16  C   UNL     1      -1.950   0.106   1.619  1.00  0.00     0.041 CG0
ATOM     17  G   UNL     1      -2.662   1.040   0.635  1.00  0.00     0.000 G0
ENDBRANCH  14  16
ENDBRANCH   1   9
BRANCH   1  18
ATOM     18  C   UNL     1      -0.626   0.994  -1.042  1.00  0.00     0.074 A 
ATOM     19  C   UNL     1      -1.882   1.504  -0.591  1.00  0.00    -0.021 A 
ATOM     20  N   UNL     1      -0.091   1.477  -2.200  1.00  0.00    -0.256 NA
ATOM     21  C   UNL     1      -2.497   2.504  -1.365  1.00  0.00     0.007 A 
ATOM     22  C   UNL     1      -0.686   2.445  -2.939  1.00  0.00     0.112 A 
ATOM     23  C   UNL     1      -1.902   2.979  -2.531  1.00  0.00     0.020 A 
BRANCH  19  24
ATOM     24  C   UNL     1      -2.662   1.040   0.635  1.00  0.00     0.042 CG0
ATOM     25  G   UNL     1      -1.950   0.106   1.619  1.00  0.00     0.000 G0
ENDBRANCH  19  24
ENDBRANCH   1  18
TORSDOF 0
