REMARK SMILES CCC(CO)NC(=O)[C@@H]1C=C2c3cccc4c3c(cn4C)C[C@H]2N(C)C1
REMARK SMILES IDX 3 1 6 2 7 3 8 4 9 6 23 7 22 8 11 9 24 10 18 11 12 12 10 13
REMARK SMILES IDX 26 14 25 15 19 16 17 17 13 18 20 19 16 20 14 21 21 22 15 23
REMARK SMILES IDX 2 24 1 25 4 26 5 27
REMARK H PARENT 6 5 5 28
REMARK Flexibility Score: inf
ROOT
ATOM      1  C   UNL     1      -4.939  -0.880  -0.567  1.00  0.00     0.107 C 
ENDROOT
BRANCH   1   2
ATOM      2  N   UNL     1      -3.665  -0.199  -0.830  1.00  0.00    -0.351 N 
ATOM      3  C   UNL     1      -2.438  -0.594  -0.198  1.00  0.00     0.228 C 
ATOM      4  O   UNL     1      -2.409  -1.608   0.554  1.00  0.00    -0.274 OA
ATOM      5  H   UNL     1      -3.637   0.604  -1.498  1.00  0.00     0.163 HD
BRANCH   3   6
ATOM      6  C   UNL     1      -1.196   0.239  -0.378  1.00  0.00     0.115 C 
ATOM      7  C   UNL     1       1.395   0.932   0.850  1.00  0.00     0.091 C 
ATOM      8  C   UNL     1       2.765   1.648   0.588  1.00  0.00     0.061 C 
ATOM      9  C   UNL     1       1.216  -0.312  -0.058  1.00  0.00    -0.026 C 
ATOM     10  N   UNL     1       0.266   1.891   0.699  1.00  0.00    -0.298 NA
ATOM     11  C   UNL     1       3.868   0.650   0.412  1.00  0.00    -0.020 A 
ATOM     12  C   UNL     1       2.410  -1.174  -0.300  1.00  0.00    -0.011 A 
ATOM     13  C   UNL     1       0.014  -0.634  -0.565  1.00  0.00    -0.007 C 
ATOM     14  C   UNL     1      -1.022   1.182   0.814  1.00  0.00     0.102 C 
ATOM     15  C   UNL     1       0.319   2.954   1.722  1.00  0.00     0.106 C 
ATOM     16  C   UNL     1       5.252   0.790   0.445  1.00  0.00     0.090 A 
ATOM     17  C   UNL     1       3.637  -0.613  -0.023  1.00  0.00     0.010 A 
ATOM     18  C   UNL     1       2.419  -2.503  -0.791  1.00  0.00     0.009 A 
ATOM     19  N   UNL     1       5.837  -0.383   0.076  1.00  0.00    -0.350 N 
ATOM     20  C   UNL     1       4.830  -1.232  -0.222  1.00  0.00     0.049 A 
ATOM     21  C   UNL     1       3.651  -3.176  -0.999  1.00  0.00     0.003 A 
ATOM     22  C   UNL     1       7.267  -0.618  -0.094  1.00  0.00     0.149 C 
ATOM     23  C   UNL     1       4.880  -2.535  -0.722  1.00  0.00     0.027 A 
ENDBRANCH   3   6
ENDBRANCH   1   2
BRANCH   1  24
ATOM     24  C   UNL     1      -5.458  -0.577   0.860  1.00  0.00     0.024 C 
ATOM     25  C   UNL     1      -5.547   0.913   1.200  1.00  0.00     0.006 C 
ENDBRANCH   1  24
BRANCH   1  26
ATOM     26  C   UNL     1      -5.979  -0.571  -1.664  1.00  0.00     0.180 C 
BRANCH  26  27
ATOM     27  O   UNL     1      -6.215   0.807  -1.783  1.00  0.00    -0.394 OA
ATOM     28  H   UNL     1      -5.713   1.126  -2.577  1.00  0.00     0.210 HD
ENDBRANCH  26  27
ENDBRANCH   1  26
TORSDOF 5
