REMARK SMILES CN(C)CCOC(c1ccc(Cl)cc1)c1ccccn1
REMARK SMILES IDX 5 1 4 2 2 3 1 4 3 5 6 6 7 7 8 8 9 9 14 10 10 11 13 12 11 13
REMARK SMILES IDX 12 14 15 15 16 16 20 17 17 18 19 19 18 20
REMARK H PARENT
REMARK Flexibility Score: inf
ROOT
ATOM      1  C   UNL     1       1.701  -1.162  -0.837  1.00  0.00     0.177 C 
ENDROOT
BRANCH   1   2
ATOM      2  C   UNL     1       2.923  -0.598  -0.079  1.00  0.00     0.112 C 
BRANCH   2   3
ATOM      3  N   UNL     1       3.433   0.702  -0.575  1.00  0.00    -0.307 NA
ATOM      4  C   UNL     1       2.560   1.842  -0.255  1.00  0.00     0.105 C 
ATOM      5  C   UNL     1       3.796   0.683  -2.000  1.00  0.00     0.105 C 
ENDBRANCH   2   3
ENDBRANCH   1   2
BRANCH   1   6
ATOM      6  O   UNL     1       0.595  -0.281  -0.786  1.00  0.00    -0.366 OA
BRANCH   6   7
ATOM      7  C   UNL     1      -0.219  -0.520   0.352  1.00  0.00     0.197 C 
BRANCH   7   8
ATOM      8  C   UNL     1      -0.875   0.775   0.767  1.00  0.00    -0.013 A 
ATOM      9  C   UNL     1      -0.938   1.136   2.125  1.00  0.00     0.008 A 
ATOM     10  C   UNL     1      -1.461   1.622  -0.192  1.00  0.00     0.008 A 
ATOM     11  C   UNL     1      -1.557   2.328   2.512  1.00  0.00     0.021 A 
ATOM     12  C   UNL     1      -2.079   2.813   0.199  1.00  0.00     0.021 A 
ATOM     13  C   UNL     1      -2.126   3.168   1.550  1.00  0.00     0.041 A 
ATOM     14  Cl  UNL     1      -2.903   4.663   2.039  1.00  0.00    -0.084 Cl
ENDBRANCH   7   8
BRANCH   7  15
ATOM     15  C   UNL     1      -1.287  -1.534   0.025  1.00  0.00     0.074 A 
ATOM     16  C   UNL     1      -1.818  -2.358   1.029  1.00  0.00     0.027 A 
ATOM     17  N   UNL     1      -1.786  -1.612  -1.241  1.00  0.00    -0.258 NA
ATOM     18  C   UNL     1      -2.832  -3.263   0.707  1.00  0.00     0.004 A 
ATOM     19  C   UNL     1      -2.773  -2.486  -1.572  1.00  0.00     0.111 A 
ATOM     20  C   UNL     1      -3.314  -3.331  -0.601  1.00  0.00     0.020 A 
ENDBRANCH   7  15
ENDBRANCH   6   7
ENDBRANCH   1   6
TORSDOF 6
