REMARK SMILES CC[C@]1(O)C[C@@H]2CN(CCc3c([nH]c4ccccc34)[C@@](C(=O)OC)(c3cc4c(cc3OC)N(C)[C@H]3[C@@](O)(C(=O)OC)[C@H](OC(C)=O)[C@]5(CC)C=CCN6CC[C@]43[C@@H]65)C2)C1
REMARK SMILES IDX 20 1 25 2 35 3 33 4 56 5 36 6 34 7 28 8 27 9 55 10 57 11
REMARK SMILES IDX 42 12 29 13 26 14 54 15 53 16 47 17 30 18 52 19 50 20 51 21
REMARK SMILES IDX 37 22 38 24 39 25 40 26 41 27 43 28 44 29 45 30 46 31 48 32
REMARK SMILES IDX 49 33 31 34 32 35 58 36 6 37 7 38 5 39 8 40 3 41 59 42 9 43
REMARK SMILES IDX 4 45 2 47 1 48 21 49 22 50 23 51 24 52 12 53 11 54 13 55
REMARK SMILES IDX 19 56 14 57 18 59 15 60 17 61 16 62 10 63
REMARK H PARENT 37 23 4 46 13 58
REMARK Flexibility Score: 100.00
ROOT
ATOM      1  C   UNL     1       2.218  -1.012   0.073  1.00  0.00     0.137 C 
ENDROOT
BRANCH   1   2
ATOM      2  C   UNL     1       0.698  -1.034   0.391  1.00  0.00     0.018 A 
ATOM      3  C   UNL     1      -3.863  -1.290  -0.876  1.00  0.00     0.141 C 
ATOM      4  N   UNL     1      -3.444  -1.883   0.413  1.00  0.00    -0.367 N 
ATOM      5  C   UNL     1      -2.751  -0.242  -1.230  1.00  0.00     0.039 C 
ATOM      6  C   UNL     1      -5.307  -0.712  -0.902  1.00  0.00     0.221 C 
ATOM      7  C   UNL     1      -4.022  -3.110   0.975  1.00  0.00     0.144 C 
ATOM      8  C   UNL     1      -2.063  -1.573   0.586  1.00  0.00     0.044 A 
ATOM      9  C   UNL     1      -1.596  -0.760  -0.402  1.00  0.00    -0.014 A 
ATOM     10  C   UNL     1      -2.420  -0.217  -2.721  1.00  0.00     0.031 C 
ATOM     11  C   UNL     1      -2.989   1.252  -0.837  1.00  0.00     0.083 C 
ATOM     12  C   UNL     1      -5.366   0.556  -0.012  1.00  0.00     0.233 C 
ATOM     13  C   UNL     1      -1.206  -2.096   1.555  1.00  0.00     0.073 A 
ATOM     14  C   UNL     1      -0.236  -0.466  -0.512  1.00  0.00     0.015 A 
ATOM     15  C   UNL     1      -1.930   1.191  -3.011  1.00  0.00     0.086 C 
ATOM     16  N   UNL     1      -2.262   2.057  -1.864  1.00  0.00    -0.295 NA
ATOM     17  C   UNL     1      -4.481   1.736  -0.555  1.00  0.00     0.045 C 
ATOM     18  C   UNL     1       0.184  -1.851   1.457  1.00  0.00     0.125 A 
ATOM     19  C   UNL     1      -2.907   3.313  -2.297  1.00  0.00     0.112 C 
ATOM     20  C   UNL     1      -5.082   2.317  -1.834  1.00  0.00    -0.018 C 
ATOM     21  C   UNL     1      -4.341   3.072  -2.644  1.00  0.00    -0.015 C 
BRANCH   6  22
ATOM     22  O   UNL     1      -5.644  -0.345  -2.222  1.00  0.00    -0.374 OA
ATOM     23  H   UNL     1      -5.523  -1.129  -2.823  1.00  0.00     0.212 HD
ENDBRANCH   6  22
BRANCH   6  24
ATOM     24  C   UNL     1      -6.323  -1.760  -0.456  1.00  0.00     0.344 C 
ATOM     25  O   UNL     1      -6.641  -2.695  -1.254  1.00  0.00    -0.249 OA
BRANCH  24  26
ATOM     26  O   UNL     1      -6.897  -1.712   0.818  1.00  0.00    -0.467 OA
ATOM     27  C   UNL     1      -7.796  -2.710   1.299  1.00  0.00     0.282 C 
ENDBRANCH  24  26
ENDBRANCH   6  24
BRANCH  12  28
ATOM     28  O   UNL     1      -6.733   0.983   0.106  1.00  0.00    -0.458 OA
BRANCH  28  29
ATOM     29  C   UNL     1      -7.439   1.072   1.318  1.00  0.00     0.303 C 
ATOM     30  C   UNL     1      -8.889   1.422   1.290  1.00  0.00     0.139 C 
ATOM     31  O   UNL     1      -6.868   0.852   2.421  1.00  0.00    -0.253 OA
ENDBRANCH  28  29
ENDBRANCH  12  28
BRANCH  17  32
ATOM     32  C   UNL     1      -4.428   2.861   0.559  1.00  0.00     0.013 C 
ATOM     33  C   UNL     1      -5.549   3.911   0.529  1.00  0.00     0.005 C 
ENDBRANCH  17  32
BRANCH  18  34
ATOM     34  O   UNL     1       1.074  -2.432   2.376  1.00  0.00    -0.496 OA
ATOM     35  C   UNL     1       0.714  -3.332   3.417  1.00  0.00     0.278 C 
ENDBRANCH  18  34
ENDBRANCH   1   2
BRANCH   1  36
ATOM     36  C   UNL     1       2.580   0.141  -0.957  1.00  0.00     0.035 C 
BRANCH  36  37
ATOM     37  C   UNL     1       4.077   0.507  -1.052  1.00  0.00     0.008 C 
ATOM     38  C   UNL     1       4.945  -0.605  -1.634  1.00  0.00     0.088 C 
ATOM     39  C   UNL     1       4.401   1.793  -1.833  1.00  0.00     0.041 C 
ATOM     40  N   UNL     1       6.308  -0.446  -1.111  1.00  0.00    -0.300 NA
ATOM     41  C   UNL     1       5.942   1.894  -2.169  1.00  0.00     0.077 C 
ATOM     42  C   UNL     1       6.786   0.974  -1.192  1.00  0.00     0.119 C 
BRANCH  40  43
ATOM     43  C   UNL     1       6.555  -1.064   0.236  1.00  0.00     0.089 CG0
ATOM     44  G   UNL     1       5.430  -1.946   0.876  1.00  0.00     0.000 G0
ENDBRANCH  40  43
BRANCH  41  45
ATOM     45  O   UNL     1       6.113   1.485  -3.511  1.00  0.00    -0.389 OA
ATOM     46  H   UNL     1       7.059   1.234  -3.650  1.00  0.00     0.211 HD
ENDBRANCH  41  45
BRANCH  41  47
ATOM     47  C   UNL     1       6.377   3.381  -2.044  1.00  0.00     0.033 C 
ATOM     48  C   UNL     1       7.820   3.666  -2.473  1.00  0.00     0.007 C 
ENDBRANCH  41  47
ENDBRANCH  36  37
ENDBRANCH   1  36
BRANCH   1  49
ATOM     49  C   UNL     1       2.452  -2.396  -0.507  1.00  0.00     0.322 C 
ATOM     50  O   UNL     1       2.290  -2.596  -1.745  1.00  0.00    -0.251 OA
BRANCH  49  51
ATOM     51  O   UNL     1       2.667  -3.478   0.352  1.00  0.00    -0.468 OA
ATOM     52  C   UNL     1       2.680  -4.828  -0.101  1.00  0.00     0.282 C 
ENDBRANCH  49  51
ENDBRANCH   1  49
BRANCH   1  53
ATOM     53  C   UNL     1       3.042  -0.780   1.358  1.00  0.00     0.041 A 
ATOM     54  C   UNL     1       4.382  -1.171   1.669  1.00  0.00    -0.017 A 
ATOM     55  N   UNL     1       2.574   0.029   2.347  1.00  0.00    -0.357 N 
ATOM     56  C   UNL     1       4.639  -0.600   2.905  1.00  0.00     0.003 A 
ATOM     57  C   UNL     1       3.535   0.117   3.274  1.00  0.00     0.046 A 
ATOM     58  H   UNL     1       1.653   0.523   2.374  1.00  0.00     0.166 HD
ATOM     59  C   UNL     1       5.779  -0.650   3.713  1.00  0.00     0.010 A 
ATOM     60  C   UNL     1       3.485   0.832   4.472  1.00  0.00     0.026 A 
ATOM     61  C   UNL     1       5.760   0.055   4.928  1.00  0.00     0.001 A 
ATOM     62  C   UNL     1       4.618   0.795   5.307  1.00  0.00     0.002 A 
BRANCH  54  63
ATOM     63  C   UNL     1       5.430  -1.946   0.876  1.00  0.00     0.053 CG0
ATOM     64  G   UNL     1       6.555  -1.064   0.236  1.00  0.00     0.000 G0
ENDBRANCH  54  63
ENDBRANCH   1  53
TORSDOF 12
