REMARK SMILES CCCCc1ncc(/C=C(\Cc2cccs2)C(=O)O)n1Cc1ccc(C(=O)O)cc1
REMARK SMILES IDX 5 1 6 2 7 3 8 4 20 5 4 6 3 7 2 8 1 9 21 10 22 11 23 12 30 13
REMARK SMILES IDX 24 14 29 15 25 16 26 17 27 18 28 19 9 21 10 22 11 23 12 24
REMARK SMILES IDX 13 25 16 26 14 27 15 28 17 29 18 30 19 31
REMARK H PARENT 28 20 19 32
REMARK Flexibility Score: inf
ROOT
ATOM      1  C   UNL     1      -0.644  -2.238   0.479  1.00  0.00     0.109 A 
ATOM      2  N   UNL     1       0.421  -2.681   1.184  1.00  0.00    -0.241 NA
ATOM      3  C   UNL     1       1.492  -2.263   0.483  1.00  0.00     0.139 A 
ATOM      4  C   UNL     1       1.068  -1.544  -0.615  1.00  0.00     0.061 A 
ATOM      5  N   UNL     1      -0.282  -1.549  -0.632  1.00  0.00    -0.324 N 
ENDROOT
BRANCH   1   6
ATOM      6  C   UNL     1      -2.066  -2.403   0.954  1.00  0.00     0.075 C 
BRANCH   6   7
ATOM      7  C   UNL     1      -2.227  -3.600   1.904  1.00  0.00     0.008 C 
BRANCH   7   8
ATOM      8  C   UNL     1      -3.661  -3.739   2.439  1.00  0.00    -0.003 C 
ATOM      9  C   UNL     1      -4.649  -4.213   1.373  1.00  0.00     0.004 C 
ENDBRANCH   7   8
ENDBRANCH   6   7
ENDBRANCH   1   6
BRANCH   5  10
ATOM     10  C   UNL     1      -1.159  -0.850  -1.581  1.00  0.00     0.159 C 
BRANCH  10  11
ATOM     11  C   UNL     1      -1.554   0.496  -1.035  1.00  0.00    -0.028 A 
ATOM     12  C   UNL     1      -0.646   1.564  -1.073  1.00  0.00     0.006 A 
ATOM     13  C   UNL     1      -2.819   0.690  -0.459  1.00  0.00     0.006 A 
ATOM     14  C   UNL     1      -0.996   2.809  -0.544  1.00  0.00     0.016 A 
ATOM     15  C   UNL     1      -3.169   1.934   0.073  1.00  0.00     0.016 A 
ATOM     16  C   UNL     1      -2.261   3.007   0.036  1.00  0.00     0.059 A 
BRANCH  16  17
ATOM     17  C   UNL     1      -2.626   4.326   0.598  1.00  0.00     0.335 C 
ATOM     18  O   UNL     1      -3.758   4.506   1.123  1.00  0.00    -0.246 OA
BRANCH  17  19
ATOM     19  O   UNL     1      -1.720   5.383   0.553  1.00  0.00    -0.478 OA
ATOM     20  H   UNL     1      -1.960   6.291   0.935  1.00  0.00     0.297 HD
ENDBRANCH  17  19
ENDBRANCH  16  17
ENDBRANCH  10  11
ENDBRANCH   5  10
BRANCH   4  21
ATOM     21  C   UNL     1       1.932  -0.977  -1.673  1.00  0.00     0.039 C 
ATOM     22  C   UNL     1       3.056  -0.257  -1.458  1.00  0.00     0.044 C 
BRANCH  22  23
ATOM     23  C   UNL     1       3.490   0.175  -0.067  1.00  0.00     0.090 C 
BRANCH  23  24
ATOM     24  C   UNL     1       3.844   1.632  -0.020  1.00  0.00     0.009 A 
ATOM     25  C   UNL     1       5.087   2.160   0.309  1.00  0.00     0.016 A 
ATOM     26  S   UNL     1       2.784   2.903  -0.317  1.00  0.00    -0.149 S 
ATOM     27  C   UNL     1       5.112   3.559   0.292  1.00  0.00     0.012 A 
ATOM     28  C   UNL     1       3.893   4.136  -0.042  1.00  0.00     0.065 A 
ENDBRANCH  23  24
ENDBRANCH  22  23
BRANCH  22  29
ATOM     29  C   UNL     1       3.924   0.089  -2.615  1.00  0.00     0.332 C 
ATOM     30  O   UNL     1       3.507  -0.047  -3.798  1.00  0.00    -0.247 OA
BRANCH  29  31
ATOM     31  O   UNL     1       5.217   0.559  -2.402  1.00  0.00    -0.478 OA
ATOM     32  H   UNL     1       5.819   0.798  -3.181  1.00  0.00     0.297 HD
ENDBRANCH  29  31
ENDBRANCH  22  29
ENDBRANCH   4  21
TORSDOF 12
