REMARK SMILES Cc1nc2n(c(=O)c1CCN1CCC(c3noc4cc(F)ccc34)CC1)CCCC2
REMARK SMILES IDX 10 1 9 2 8 3 1 4 2 5 3 6 6 7 4 8 7 9 5 10 30 11 27 12 29 13
REMARK SMILES IDX 28 14 11 15 12 16 26 17 13 18 25 19 14 20 15 21 16 22 24 23
REMARK SMILES IDX 17 24 18 25 23 26 19 27 22 28 20 29 21 30
REMARK H PARENT
REMARK Flexibility Score: inf
ROOT
ATOM      1  C   UNL     1      -0.614  -0.280  -0.825  1.00  0.00     0.089 C 
ENDROOT
BRANCH   1   2
ATOM      2  C   UNL     1      -1.123   0.178   0.559  1.00  0.00     0.059 C 
BRANCH   2   3
ATOM      3  C   UNL     1      -2.634   0.063   0.624  1.00  0.00     0.040 A 
ATOM      4  C   UNL     1      -2.506  -2.266   1.659  1.00  0.00     0.067 C 
ATOM      5  C   UNL     1      -3.270  -1.093   1.115  1.00  0.00     0.048 A 
ATOM      6  N   UNL     1      -4.624  -1.149   1.130  1.00  0.00    -0.240 NA
ATOM      7  C   UNL     1      -3.447   1.101   0.125  1.00  0.00     0.256 A 
ATOM      8  C   UNL     1      -5.399  -0.135   0.672  1.00  0.00     0.111 A 
ATOM      9  O   UNL     1      -2.902   2.145  -0.333  1.00  0.00    -0.269 OA
ATOM     10  N   UNL     1      -4.816   0.990   0.134  1.00  0.00    -0.296 N 
ATOM     11  C   UNL     1      -6.891  -0.343   0.677  1.00  0.00     0.075 C 
ATOM     12  C   UNL     1      -5.627   2.137  -0.331  1.00  0.00     0.127 C 
ATOM     13  C   UNL     1      -7.660   0.964   0.518  1.00  0.00     0.010 C 
ATOM     14  C   UNL     1      -7.078   1.762  -0.639  1.00  0.00     0.022 C 
ENDBRANCH   2   3
ENDBRANCH   1   2
BRANCH   1  15
ATOM     15  N   UNL     1       0.858  -0.310  -0.960  1.00  0.00    -0.303 NA
ATOM     16  C   UNL     1       1.533  -1.192   0.008  1.00  0.00     0.085 C 
ATOM     17  C   UNL     1       1.477   1.034  -1.022  1.00  0.00     0.085 C 
ATOM     18  C   UNL     1       2.942  -1.542  -0.503  1.00  0.00     0.026 C 
ATOM     19  C   UNL     1       3.021   0.965  -0.993  1.00  0.00     0.026 C 
ATOM     20  C   UNL     1       3.531  -0.429  -1.402  1.00  0.00     0.045 C 
BRANCH  20  21
ATOM     21  C   UNL     1       5.037  -0.477  -1.443  1.00  0.00     0.095 A 
ATOM     22  N   UNL     1       5.745  -0.687  -2.580  1.00  0.00    -0.083 NA
ATOM     23  C   UNL     1       5.936  -0.305  -0.404  1.00  0.00     0.045 A 
ATOM     24  O   UNL     1       7.014  -0.651  -2.273  1.00  0.00    -0.356 OA
ATOM     25  C   UNL     1       7.164  -0.427  -0.991  1.00  0.00     0.170 A 
ATOM     26  C   UNL     1       5.796  -0.063   0.964  1.00  0.00     0.017 A 
ATOM     27  C   UNL     1       8.346  -0.315  -0.265  1.00  0.00     0.090 A 
ATOM     28  C   UNL     1       6.972   0.052   1.729  1.00  0.00     0.040 A 
ATOM     29  C   UNL     1       8.242  -0.073   1.118  1.00  0.00     0.127 A 
ATOM     30  F   UNL     1       9.364   0.038   1.869  1.00  0.00    -0.207 F 
ENDBRANCH  20  21
ENDBRANCH   1  15
TORSDOF 4
