REMARK SMILES Nc1c2c(nc3ccccc13)CCCC2
REMARK SMILES IDX 2 1 3 2 15 3 14 4 13 5 12 6 4 7 5 8 6 9 7 10 8 11 9 12 10 13
REMARK SMILES IDX 11 14 1 15
REMARK H PARENT 1 16 1 17
REMARK Flexibility Score: inf
ROOT
ATOM      1  C   UNL     1       0.580   1.083  -0.167  1.00  0.00     0.046 A 
ATOM      2  C   UNL     1      -0.719   0.515  -0.070  1.00  0.00    -0.003 A 
ATOM      3  C   UNL     1      -1.957   1.387  -0.215  1.00  0.00     0.039 C 
ATOM      4  C   UNL     1      -3.268   0.673   0.135  1.00  0.00     0.005 C 
ATOM      5  C   UNL     1      -3.301  -0.727  -0.468  1.00  0.00     0.007 C 
ATOM      6  C   UNL     1      -2.182  -1.573   0.136  1.00  0.00     0.056 C 
ATOM      7  C   UNL     1      -0.843  -0.890   0.049  1.00  0.00     0.046 A 
ATOM      8  N   UNL     1       0.267  -1.662   0.156  1.00  0.00    -0.252 NA
ATOM      9  C   UNL     1       1.520  -1.149   0.129  1.00  0.00     0.073 A 
ATOM     10  C   UNL     1       2.614  -2.012   0.259  1.00  0.00     0.029 A 
ATOM     11  C   UNL     1       3.913  -1.503   0.254  1.00  0.00     0.002 A 
ATOM     12  C   UNL     1       4.124  -0.131   0.129  1.00  0.00     0.001 A 
ATOM     13  C   UNL     1       3.039   0.741  -0.005  1.00  0.00     0.012 A 
ATOM     14  C   UNL     1       1.716   0.243  -0.025  1.00  0.00     0.023 A 
ENDROOT
BRANCH   1  15
ATOM     15  N   UNL     1       0.738   2.485  -0.461  1.00  0.00    -0.398 N 
ATOM     16  H   UNL     1      -0.044   3.167  -0.372  1.00  0.00     0.156 HD
ATOM     17  H   UNL     1       1.602   2.860  -0.907  1.00  0.00     0.156 HD
ENDBRANCH   1  15
TORSDOF 1
