REMARK SMILES CC(C)[N+]1(C)[C@@H]2CC[C@H]1C[C@@H](OC(=O)C(CO)c1ccccc1)C2
REMARK SMILES IDX 13 1 14 2 12 3 11 4 9 5 8 6 10 7 4 8 7 9 6 10 5 11 24 12
REMARK SMILES IDX 2 13 1 14 3 15 15 16 16 17 17 18 18 20 19 21 23 22 20 23
REMARK SMILES IDX 22 24 21 25
REMARK H PARENT 17 19
REMARK Flexibility Score: inf
ROOT
ATOM      1  C   UNL     1       2.014   0.106   1.332  1.00  0.00     0.316 C 
ATOM      2  O   UNL     1       1.956   0.850   2.349  1.00  0.00    -0.251 OA
ENDROOT
BRANCH   1   3
ATOM      3  O   UNL     1       1.010   0.150   0.359  1.00  0.00    -0.461 OA
BRANCH   3   4
ATOM      4  C   UNL     1      -0.176   0.939   0.471  1.00  0.00     0.188 C 
ATOM      5  C   UNL     1      -2.198  -0.662   0.819  1.00  0.00     0.189 C 
ATOM      6  C   UNL     1      -1.424  -1.816   0.141  1.00  0.00     0.071 C 
ATOM      7  C   UNL     1      -1.156   0.282   1.493  1.00  0.00     0.110 C 
ATOM      8  N   UNL     1      -2.944   0.032  -0.273  1.00  0.00    -0.319 N 
ATOM      9  C   UNL     1      -1.203  -1.322  -1.287  1.00  0.00     0.071 C 
ATOM     10  C   UNL     1      -1.867   0.074  -1.306  1.00  0.00     0.189 C 
ATOM     11  C   UNL     1      -4.070  -0.837  -0.750  1.00  0.00     0.335 C 
ATOM     12  C   UNL     1      -0.776   1.131  -0.954  1.00  0.00     0.110 C 
BRANCH   8  13
ATOM     13  C   UNL     1      -3.506   1.394   0.112  1.00  0.00     0.179 C 
ATOM     14  C   UNL     1      -4.151   2.158  -1.069  1.00  0.00     0.075 C 
ATOM     15  C   UNL     1      -4.514   1.345   1.285  1.00  0.00     0.075 C 
ENDBRANCH   8  13
ENDBRANCH   3   4
ENDBRANCH   1   3
BRANCH   1  16
ATOM     16  C   UNL     1       3.193  -0.809   1.144  1.00  0.00     0.155 C 
BRANCH  16  17
ATOM     17  C   UNL     1       2.730  -2.230   0.771  1.00  0.00     0.176 C 
BRANCH  17  18
ATOM     18  O   UNL     1       3.830  -3.091   0.641  1.00  0.00    -0.395 OA
ATOM     19  H   UNL     1       4.136  -3.302   1.562  1.00  0.00     0.210 HD
ENDBRANCH  17  18
ENDBRANCH  16  17
BRANCH  16  20
ATOM     20  C   UNL     1       4.145  -0.236   0.111  1.00  0.00    -0.032 A 
ATOM     21  C   UNL     1       5.449   0.134   0.488  1.00  0.00     0.005 A 
ATOM     22  C   UNL     1       3.748  -0.060  -1.230  1.00  0.00     0.005 A 
ATOM     23  C   UNL     1       6.335   0.665  -0.454  1.00  0.00     0.000 A 
ATOM     24  C   UNL     1       4.638   0.472  -2.167  1.00  0.00     0.000 A 
ATOM     25  C   UNL     1       5.930   0.834  -1.781  1.00  0.00     0.000 A 
ENDBRANCH  16  20
ENDBRANCH   1  16
TORSDOF 7
