REMARK SMILES CCC(=O)C(CC(C)N(C)C)(c1ccccc1)c1ccccc1
REMARK SMILES IDX 6 1 5 2 3 3 4 4 2 5 1 6 12 7 13 8 17 9 14 10 16 11 15 12
REMARK SMILES IDX 18 13 19 14 23 15 20 16 22 17 21 18 7 19 8 20 9 21 10 22
REMARK SMILES IDX 11 23
REMARK H PARENT
REMARK Flexibility Score: inf
ROOT
ATOM      1  C   UNL     1       1.008  -0.759  -0.331  1.00  0.00     0.043 C 
ENDROOT
BRANCH   1   2
ATOM      2  C   UNL     1      -0.497  -0.359  -0.091  1.00  0.00     0.080 C 
BRANCH   2   3
ATOM      3  C   UNL     1      -0.897  -0.621   1.374  1.00  0.00     0.147 C 
ATOM      4  O   UNL     1      -0.118  -1.189   2.128  1.00  0.00    -0.298 OA
BRANCH   3   5
ATOM      5  C   UNL     1      -2.292  -0.316   1.879  1.00  0.00     0.073 C 
ATOM      6  C   UNL     1      -2.292   0.180   3.325  1.00  0.00     0.012 C 
ENDBRANCH   3   5
ENDBRANCH   2   3
BRANCH   2   7
ATOM      7  C   UNL     1      -0.636   1.127  -0.491  1.00  0.00    -0.030 A 
ATOM      8  C   UNL     1      -0.617   1.486  -1.859  1.00  0.00     0.005 A 
ATOM      9  C   UNL     1      -0.658   2.170   0.464  1.00  0.00     0.005 A 
ATOM     10  C   UNL     1      -0.693   2.825  -2.252  1.00  0.00     0.000 A 
ATOM     11  C   UNL     1      -0.733   3.507   0.064  1.00  0.00     0.000 A 
ATOM     12  C   UNL     1      -0.759   3.834  -1.292  1.00  0.00     0.000 A 
ENDBRANCH   2   7
BRANCH   2  13
ATOM     13  C   UNL     1      -1.449  -1.238  -0.947  1.00  0.00    -0.030 A 
ATOM     14  C   UNL     1      -2.716  -0.745  -1.351  1.00  0.00     0.005 A 
ATOM     15  C   UNL     1      -1.161  -2.596  -1.236  1.00  0.00     0.005 A 
ATOM     16  C   UNL     1      -3.608  -1.542  -2.071  1.00  0.00     0.000 A 
ATOM     17  C   UNL     1      -2.060  -3.386  -1.958  1.00  0.00     0.000 A 
ATOM     18  C   UNL     1      -3.278  -2.859  -2.382  1.00  0.00     0.000 A 
ENDBRANCH   2  13
ENDBRANCH   1   2
BRANCH   1  19
ATOM     19  C   UNL     1       2.075   0.124   0.394  1.00  0.00     0.054 C 
ATOM     20  C   UNL     1       2.704   1.166  -0.560  1.00  0.00     0.024 C 
BRANCH  19  21
ATOM     21  N   UNL     1       3.090  -0.748   1.050  1.00  0.00    -0.307 NA
ATOM     22  C   UNL     1       3.778  -0.078   2.166  1.00  0.00     0.105 C 
ATOM     23  C   UNL     1       4.065  -1.344   0.119  1.00  0.00     0.105 C 
ENDBRANCH  19  21
ENDBRANCH   1  19
TORSDOF 7
