REMARK SMILES C=CCN1CC[C@]23CCCC[C@H]2[C@H]1Cc1ccc(O)cc13
REMARK SMILES IDX 12 1 11 2 10 3 9 4 8 5 7 6 6 7 5 8 4 9 13 10 14 11 15 12
REMARK SMILES IDX 21 13 20 14 18 15 17 16 16 17 3 18 2 19 1 20 19 21
REMARK H PARENT 19 22
REMARK Flexibility Score: inf
ROOT
ATOM      1  C   UNL     1       0.236  -1.176  -0.080  1.00  0.00     0.017 C 
ATOM      2  C   UNL     1      -0.415  -2.188  -1.042  1.00  0.00     0.006 C 
ATOM      3  C   UNL     1      -1.323  -3.177  -0.275  1.00  0.00     0.000 C 
ATOM      4  C   UNL     1      -1.705  -2.698   1.141  1.00  0.00     0.001 C 
ATOM      5  C   UNL     1      -2.004  -1.191   1.162  1.00  0.00     0.012 C 
ATOM      6  C   UNL     1      -0.832  -0.292   0.614  1.00  0.00     0.001 C 
ATOM      7  C   UNL     1      -0.091   0.430   1.764  1.00  0.00     0.028 C 
ATOM      8  C   UNL     1       1.072   1.299   1.231  1.00  0.00     0.086 C 
ATOM      9  N   UNL     1       1.987   0.578   0.305  1.00  0.00    -0.296 NA
ATOM     10  C   UNL     1       1.305  -0.272  -0.718  1.00  0.00     0.065 C 
ATOM     11  C   UNL     1       0.700   0.597  -1.835  1.00  0.00     0.055 C 
ATOM     12  C   UNL     1      -0.636   1.205  -1.479  1.00  0.00    -0.042 A 
ATOM     13  C   UNL     1      -1.382   0.782  -0.347  1.00  0.00    -0.034 A 
ATOM     14  C   UNL     1      -2.559   1.490  -0.019  1.00  0.00     0.050 A 
ATOM     15  C   UNL     1      -3.045   2.507  -0.850  1.00  0.00     0.115 A 
ATOM     16  C   UNL     1      -2.343   2.855  -2.002  1.00  0.00     0.046 A 
ATOM     17  C   UNL     1      -1.143   2.216  -2.311  1.00  0.00     0.008 A 
ENDROOT
BRANCH   9  18
ATOM     18  C   UNL     1       3.070  -0.129   1.027  1.00  0.00     0.111 C 
BRANCH  18  19
ATOM     19  C   UNL     1       4.245  -0.378   0.121  1.00  0.00    -0.019 C 
ATOM     20  C   UNL     1       4.923   0.629  -0.434  1.00  0.00     0.005 C 
ENDBRANCH  18  19
ENDBRANCH   9  18
BRANCH  15  21
ATOM     21  O   UNL     1      -4.223   3.180  -0.534  1.00  0.00    -0.508 OA
ATOM     22  H   UNL     1      -4.757   2.953   0.296  1.00  0.00     0.293 HD
ENDBRANCH  15  21
TORSDOF 3
