REMARK SMILES OC(CCN1CCCCC1)(c1ccccc1)C1CC2C=CC1C2
REMARK SMILES IDX 3 1 2 2 1 3 17 5 18 6 22 7 19 8 23 9 21 10 20 11 11 12 12 13
REMARK SMILES IDX 16 14 13 15 15 16 14 17 4 18 5 19 6 20 10 21 7 22 9 23 8 24
REMARK H PARENT 1 4
REMARK Flexibility Score: inf
ROOT
ATOM      1  C   UNL     1       0.441  -0.333  -0.670  1.00  0.00     0.056 C 
ENDROOT
BRANCH   1   2
ATOM      2  C   UNL     1      -1.106  -0.090  -0.747  1.00  0.00     0.094 C 
BRANCH   2   3
ATOM      3  O   UNL     1      -1.575  -0.426  -2.039  1.00  0.00    -0.385 OA
ATOM      4  H   UNL     1      -0.870  -0.255  -2.716  1.00  0.00     0.211 HD
ENDBRANCH   2   3
BRANCH   2   5
ATOM      5  C   UNL     1      -1.862  -1.019   0.272  1.00  0.00     0.033 C 
ATOM      6  C   UNL     1      -1.698  -2.548   0.013  1.00  0.00     0.015 C 
ATOM      7  C   UNL     1      -3.416  -0.876   0.272  1.00  0.00     0.018 C 
ATOM      8  C   UNL     1      -3.155  -3.059   0.033  1.00  0.00     0.012 C 
ATOM      9  C   UNL     1      -3.865  -1.948  -0.708  1.00  0.00     0.016 C 
ATOM     10  C   UNL     1      -3.894  -1.517   1.551  1.00  0.00    -0.027 C 
ATOM     11  C   UNL     1      -3.713  -2.832   1.416  1.00  0.00    -0.028 C 
ENDBRANCH   2   5
BRANCH   2  12
ATOM     12  C   UNL     1      -1.383   1.410  -0.512  1.00  0.00    -0.016 A 
ATOM     13  C   UNL     1      -1.769   1.930   0.747  1.00  0.00     0.007 A 
ATOM     14  C   UNL     1      -1.159   2.331  -1.561  1.00  0.00     0.007 A 
ATOM     15  C   UNL     1      -1.965   3.302   0.928  1.00  0.00     0.000 A 
ATOM     16  C   UNL     1      -1.356   3.701  -1.372  1.00  0.00     0.000 A 
ATOM     17  C   UNL     1      -1.763   4.186  -0.130  1.00  0.00     0.000 A 
ENDBRANCH   2  12
ENDBRANCH   1   2
BRANCH   1  18
ATOM     18  C   UNL     1       1.067  -0.139   0.735  1.00  0.00     0.088 C 
BRANCH  18  19
ATOM     19  N   UNL     1       2.543  -0.028   0.733  1.00  0.00    -0.303 NA
ATOM     20  C   UNL     1       3.216  -1.172   0.086  1.00  0.00     0.084 C 
ATOM     21  C   UNL     1       3.029   1.260   0.199  1.00  0.00     0.084 C 
ATOM     22  C   UNL     1       4.721  -1.112   0.365  1.00  0.00     0.016 C 
ATOM     23  C   UNL     1       4.528   1.404   0.483  1.00  0.00     0.016 C 
ATOM     24  C   UNL     1       5.305   0.223  -0.111  1.00  0.00     0.003 C 
ENDBRANCH  18  19
ENDBRANCH   1  18
TORSDOF 6
