REMARK SMILES CC(C(=O)O)c1ccc2c(c1)[nH]c1ccc(Cl)cc12
REMARK SMILES IDX 1 1 2 2 3 3 4 4 5 5 6 7 11 8 7 9 10 10 8 11 9 12 12 13 19 14
REMARK SMILES IDX 13 15 18 17 14 18 16 19 15 20 17 21
REMARK H PARENT 5 6 12 16
REMARK Flexibility Score: inf
ROOT
ATOM      1  C   UNL     1      -3.857   0.757  -0.868  1.00  0.00     0.025 C 
ATOM      2  C   UNL     1      -3.288   0.245   0.460  1.00  0.00     0.126 C 
ENDROOT
BRANCH   2   3
ATOM      3  C   UNL     1      -3.750  -1.156   0.757  1.00  0.00     0.310 C 
ATOM      4  O   UNL     1      -3.995  -1.494   1.946  1.00  0.00    -0.252 OA
BRANCH   3   5
ATOM      5  O   UNL     1      -3.863  -2.096  -0.264  1.00  0.00    -0.481 OA
ATOM      6  H   UNL     1      -4.156  -3.045  -0.066  1.00  0.00     0.296 HD
ENDBRANCH   3   5
ENDBRANCH   2   3
BRANCH   2   7
ATOM      7  C   UNL     1      -1.775   0.321   0.472  1.00  0.00    -0.032 A 
ATOM      8  C   UNL     1      -1.004  -0.457  -0.427  1.00  0.00     0.031 A 
ATOM      9  C   UNL     1      -1.118   1.187   1.388  1.00  0.00     0.005 A 
ATOM     10  C   UNL     1       0.384  -0.345  -0.377  1.00  0.00     0.047 A 
ATOM     11  C   UNL     1       0.284   1.280   1.417  1.00  0.00     0.011 A 
ATOM     12  C   UNL     1       1.004   0.498   0.519  1.00  0.00     0.007 A 
ATOM     13  N   UNL     1       1.282  -1.000  -1.146  1.00  0.00    -0.355 N 
ATOM     14  C   UNL     1       2.356   0.363   0.299  1.00  0.00     0.009 A 
ATOM     15  C   UNL     1       2.486  -0.557  -0.721  1.00  0.00     0.047 A 
ATOM     16  H   UNL     1       1.088  -1.695  -1.901  1.00  0.00     0.167 HD
ATOM     17  C   UNL     1       3.461   0.962   0.900  1.00  0.00     0.031 A 
ATOM     18  C   UNL     1       3.738  -0.934  -1.202  1.00  0.00     0.028 A 
ATOM     19  C   UNL     1       4.737   0.597   0.431  1.00  0.00     0.041 A 
ATOM     20  C   UNL     1       4.874  -0.346  -0.615  1.00  0.00     0.022 A 
ATOM     21  Cl  UNL     1       6.166   1.317   1.148  1.00  0.00    -0.084 Cl
ENDBRANCH   2   7
TORSDOF 3
