REMARK SMILES C=CCC1(C(C)CC)C(=O)NC(=O)NC1=O
REMARK SMILES IDX 4 1 9 2 10 3 11 4 12 5 13 6 14 7 15 8 16 9 5 12 6 13 7 14
REMARK SMILES IDX 8 15 3 16 2 17 1 18
REMARK H PARENT 11 10 14 11
REMARK Flexibility Score: inf
ROOT
ATOM      1  C   UNL     1      -0.413  -0.160  -0.210  1.00  0.00     0.134 C 
ATOM      2  C   UNL     1      -1.090   0.106   1.138  1.00  0.00     0.244 C 
ATOM      3  O   UNL     1      -1.323   1.286   1.518  1.00  0.00    -0.273 OA
ATOM      4  N   UNL     1      -1.400  -0.975   2.023  1.00  0.00    -0.277 N 
ATOM      5  C   UNL     1      -1.445  -2.314   1.537  1.00  0.00     0.328 C 
ATOM      6  O   UNL     1      -1.683  -3.266   2.326  1.00  0.00    -0.248 OA
ATOM      7  N   UNL     1      -1.260  -2.565   0.146  1.00  0.00    -0.277 N 
ATOM      8  C   UNL     1      -0.936  -1.495  -0.747  1.00  0.00     0.244 C 
ATOM      9  O   UNL     1      -1.012  -1.698  -1.990  1.00  0.00    -0.273 OA
ATOM     10  H   UNL     1      -1.666  -0.775   3.014  1.00  0.00     0.174 HD
ATOM     11  H   UNL     1      -1.422  -3.526  -0.232  1.00  0.00     0.174 HD
ENDROOT
BRANCH   1  12
ATOM     12  C   UNL     1       1.147  -0.285   0.025  1.00  0.00     0.011 C 
ATOM     13  C   UNL     1       1.919  -0.734  -1.239  1.00  0.00     0.009 C 
BRANCH  12  14
ATOM     14  C   UNL     1       1.793   1.010   0.601  1.00  0.00     0.001 C 
ATOM     15  C   UNL     1       3.160   0.763   1.244  1.00  0.00     0.004 C 
ENDBRANCH  12  14
ENDBRANCH   1  12
BRANCH   1  16
ATOM     16  C   UNL     1      -0.751   0.992  -1.214  1.00  0.00     0.054 C 
BRANCH  16  17
ATOM     17  C   UNL     1      -2.237   1.149  -1.450  1.00  0.00    -0.033 C 
ATOM     18  C   UNL     1      -2.895   2.263  -1.114  1.00  0.00     0.004 C 
ENDBRANCH  16  17
ENDBRANCH   1  16
TORSDOF 4
