REMARK SMILES N[C@@H](Cc1cc(I)c(Oc2cc(I)c(O)c(I)c2)c(I)c1)C(=O)O
REMARK SMILES IDX 4 1 5 2 6 3 7 4 8 5 19 6 20 7 21 8 3 9 2 10 1 11 22 14 23 15
REMARK SMILES IDX 24 16 9 18 10 19 11 20 18 21 12 22 16 23 13 24 14 25 17 26
REMARK SMILES IDX 15 27
REMARK H PARENT 1 12 1 13 24 17 15 28
REMARK Flexibility Score: inf
ROOT
ATOM      1  C   UNL     1       2.121  -0.439   1.283  1.00  0.00    -0.043 A 
ATOM      2  C   UNL     1       1.707  -1.676   0.767  1.00  0.00     0.022 A 
ATOM      3  C   UNL     1       0.351  -2.018   0.753  1.00  0.00     0.057 A 
ATOM      4  I   UNL     1      -0.231  -3.884  -0.052  1.00  0.00    -0.040 I 
ATOM      5  C   UNL     1      -0.607  -1.117   1.240  1.00  0.00     0.154 A 
ATOM      6  C   UNL     1      -0.195   0.118   1.772  1.00  0.00     0.057 A 
ATOM      7  I   UNL     1      -1.581   1.490   2.595  1.00  0.00    -0.040 I 
ATOM      8  C   UNL     1       1.163   0.454   1.785  1.00  0.00     0.022 A 
ENDROOT
BRANCH   1   9
ATOM      9  C   UNL     1       3.578  -0.049   1.239  1.00  0.00     0.066 C 
BRANCH   9  10
ATOM     10  C   UNL     1       3.977   0.493  -0.150  1.00  0.00     0.166 C 
BRANCH  10  11
ATOM     11  N   UNL     1       5.421   0.727  -0.227  1.00  0.00    -0.318 NA
ATOM     12  H   UNL     1       5.723   1.319   0.581  1.00  0.00     0.119 HD
ATOM     13  H   UNL     1       5.912  -0.192  -0.138  1.00  0.00     0.119 HD
ENDBRANCH  10  11
BRANCH  10  14
ATOM     14  C   UNL     1       3.239   1.764  -0.472  1.00  0.00     0.320 C 
ATOM     15  O   UNL     1       3.528   2.838   0.122  1.00  0.00    -0.251 OA
BRANCH  14  16
ATOM     16  O   UNL     1       2.203   1.744  -1.401  1.00  0.00    -0.480 OA
ATOM     17  H   UNL     1       1.680   2.585  -1.614  1.00  0.00     0.296 HD
ENDBRANCH  14  16
ENDBRANCH  10  14
ENDBRANCH   9  10
ENDBRANCH   1   9
BRANCH   5  18
ATOM     18  O   UNL     1      -1.962  -1.461   1.193  1.00  0.00    -0.455 OA
BRANCH  18  19
ATOM     19  C   UNL     1      -2.889  -0.875   0.318  1.00  0.00     0.129 A 
ATOM     20  C   UNL     1      -4.245  -1.166   0.489  1.00  0.00     0.065 A 
ATOM     21  C   UNL     1      -2.496  -0.019  -0.726  1.00  0.00     0.065 A 
ATOM     22  C   UNL     1      -5.210  -0.607  -0.357  1.00  0.00     0.060 A 
ATOM     23  C   UNL     1      -3.452   0.546  -1.575  1.00  0.00     0.060 A 
ATOM     24  I   UNL     1      -7.238  -1.110  -0.003  1.00  0.00    -0.040 I 
ATOM     25  C   UNL     1      -4.814   0.259  -1.397  1.00  0.00     0.142 A 
ATOM     26  I   UNL     1      -2.808   1.835  -3.122  1.00  0.00    -0.040 I 
BRANCH  25  27
ATOM     27  O   UNL     1      -5.744   0.839  -2.260  1.00  0.00    -0.506 OA
ATOM     28  H   UNL     1      -6.739   0.676  -2.189  1.00  0.00     0.293 HD
ENDBRANCH  25  27
ENDBRANCH  18  19
ENDBRANCH   5  18
TORSDOF 8
