REMARK SMILES COC(=O)C1=C(C)NC(C)=C(C(=O)OCCN(C)Cc2ccccc2)C1c1cccc([N+](=O)[O-])c1
REMARK SMILES IDX 15 1 14 2 12 3 13 4 11 5 5 6 6 7 26 8 7 9 8 10 9 11 10 13
REMARK SMILES IDX 3 14 4 15 2 16 1 17 27 18 35 19 28 20 31 21 29 22 30 23
REMARK SMILES IDX 32 24 34 25 33 26 16 27 17 28 18 29 19 30 20 31 21 32 25 33
REMARK SMILES IDX 22 34 24 35 23 36
REMARK H PARENT 8 12
REMARK Flexibility Score: inf
ROOT
ATOM      1  C   UNL     1       1.507   0.588   0.488  1.00  0.00     0.248 C 
ENDROOT
BRANCH   1   2
ATOM      2  O   UNL     1       0.181   0.131   0.233  1.00  0.00    -0.461 OA
BRANCH   2   3
ATOM      3  C   UNL     1      -0.134  -0.761  -0.801  1.00  0.00     0.336 C 
ATOM      4  O   UNL     1       0.739  -1.038  -1.671  1.00  0.00    -0.246 OA
BRANCH   3   5
ATOM      5  C   UNL     1      -1.513  -1.330  -0.873  1.00  0.00     0.068 C 
ATOM      6  C   UNL     1      -3.889  -1.355   0.098  1.00  0.00     0.068 C 
ATOM      7  C   UNL     1      -4.185  -2.403  -0.710  1.00  0.00     0.023 C 
ATOM      8  C   UNL     1      -2.603  -0.574  -0.128  1.00  0.00     0.098 C 
ATOM      9  C   UNL     1      -5.513  -3.115  -0.667  1.00  0.00     0.065 C 
ATOM     10  N   UNL     1      -3.197  -2.878  -1.636  1.00  0.00    -0.362 N 
ATOM     11  C   UNL     1      -1.833  -2.428  -1.602  1.00  0.00     0.023 C 
ATOM     12  H   UNL     1      -3.453  -3.650  -2.295  1.00  0.00     0.166 HD
ATOM     13  C   UNL     1      -0.814  -3.216  -2.390  1.00  0.00     0.065 C 
BRANCH   6  14
ATOM     14  C   UNL     1      -4.794  -0.865   1.178  1.00  0.00     0.336 C 
ATOM     15  O   UNL     1      -5.689  -1.607   1.668  1.00  0.00    -0.246 OA
BRANCH  14  16
ATOM     16  O   UNL     1      -4.600   0.422   1.700  1.00  0.00    -0.466 OA
ATOM     17  C   UNL     1      -5.394   0.955   2.757  1.00  0.00     0.282 C 
ENDBRANCH  14  16
ENDBRANCH   6  14
BRANCH   8  18
ATOM     18  C   UNL     1      -2.901   0.728  -0.847  1.00  0.00    -0.029 A 
ATOM     19  C   UNL     1      -2.630   1.961  -0.224  1.00  0.00     0.090 A 
ATOM     20  C   UNL     1      -3.452   0.723  -2.140  1.00  0.00     0.005 A 
ATOM     21  C   UNL     1      -2.910   3.178  -0.878  1.00  0.00     0.269 A 
ATOM     22  C   UNL     1      -3.730   1.925  -2.793  1.00  0.00     0.007 A 
ATOM     23  C   UNL     1      -3.460   3.145  -2.169  1.00  0.00     0.085 A 
BRANCH  21  24
ATOM     24  N   UNL     1      -2.636   4.438  -0.236  1.00  0.00     0.062 N 
ATOM     25  O   UNL     1      -2.826   5.623  -0.914  1.00  0.00    -0.258 OA
ATOM     26  O   UNL     1      -2.211   4.477   0.938  1.00  0.00    -0.258 OA
ENDBRANCH  21  24
ENDBRANCH   8  18
ENDBRANCH   3   5
ENDBRANCH   2   3
ENDBRANCH   1   2
BRANCH   1  27
ATOM     27  C   UNL     1       2.312  -0.506   1.196  1.00  0.00     0.126 C 
BRANCH  27  28
ATOM     28  N   UNL     1       3.718  -0.077   1.369  1.00  0.00    -0.299 NA
ATOM     29  C   UNL     1       4.272  -0.637   2.615  1.00  0.00     0.105 C 
BRANCH  28  30
ATOM     30  C   UNL     1       4.533  -0.495   0.208  1.00  0.00     0.119 C 
BRANCH  30  31
ATOM     31  C   UNL     1       5.832   0.268   0.152  1.00  0.00    -0.034 A 
ATOM     32  C   UNL     1       7.055  -0.412   0.025  1.00  0.00     0.005 A 
ATOM     33  C   UNL     1       5.827   1.671   0.184  1.00  0.00     0.005 A 
ATOM     34  C   UNL     1       8.254   0.302  -0.055  1.00  0.00     0.000 A 
ATOM     35  C   UNL     1       7.028   2.382   0.104  1.00  0.00     0.000 A 
ATOM     36  C   UNL     1       8.241   1.696  -0.012  1.00  0.00     0.000 A 
ENDBRANCH  30  31
ENDBRANCH  28  30
ENDBRANCH  27  28
ENDBRANCH   1  27
TORSDOF 11
