REMARK SMILES O=C1Nc2ccc(Cl)cc2C(c2ccccc2)=NC1O
REMARK SMILES IDX 18 1 11 2 19 3 20 5 12 7 13 8 17 9 14 10 16 11 15 12 10 13
REMARK SMILES IDX 4 14 9 15 5 16 7 17 6 18 8 19 3 20 2 21 1 23
REMARK H PARENT 20 6 3 22
REMARK Flexibility Score: 90.00
ROOT
ATOM      1  N   UNL     1      -0.143   1.644  -0.934  1.00  0.00    -0.243 NA
ATOM      2  C   UNL     1       0.174   0.509  -0.378  1.00  0.00     0.078 C 
ENDROOT
BRANCH   1   3
ATOM      3  C   UNL     1      -1.494   2.059  -1.295  1.00  0.00     0.323 CG0
ATOM      4  G   UNL     1      -2.312   2.215  -0.045  1.00  0.00     0.000 G0
BRANCH   3   5
ATOM      5  O   UNL     1      -1.446   3.258  -2.027  1.00  0.00    -0.364 OA
ATOM      6  H   UNL     1      -0.902   3.905  -1.504  1.00  0.00     0.213 HD
ENDBRANCH   3   5
ENDBRANCH   1   3
BRANCH   2   7
ATOM      7  C   UNL     1       1.605   0.260  -0.061  1.00  0.00     0.000 A 
ATOM      8  C   UNL     1       2.620   0.847  -0.839  1.00  0.00     0.010 A 
ATOM      9  C   UNL     1       1.970  -0.543   1.038  1.00  0.00     0.010 A 
ATOM     10  C   UNL     1       3.967   0.621  -0.536  1.00  0.00     0.001 A 
ATOM     11  C   UNL     1       3.318  -0.765   1.336  1.00  0.00     0.001 A 
ATOM     12  C   UNL     1       4.315  -0.186   0.549  1.00  0.00     0.000 A 
ENDBRANCH   2   7
BRANCH   2  13
ATOM     13  C   UNL     1      -0.855  -0.536  -0.092  1.00  0.00     0.026 A 
ATOM     14  C   UNL     1      -2.102  -0.237   0.519  1.00  0.00     0.050 A 
ATOM     15  C   UNL     1      -0.554  -1.876  -0.404  1.00  0.00     0.033 A 
ATOM     16  C   UNL     1      -2.975  -1.285   0.851  1.00  0.00     0.028 A 
ATOM     17  C   UNL     1      -1.446  -2.903  -0.088  1.00  0.00     0.041 A 
ATOM     18  C   UNL     1      -2.652  -2.607   0.546  1.00  0.00     0.023 A 
ATOM     19  Cl  UNL     1      -1.045  -4.565  -0.478  1.00  0.00    -0.084 Cl
BRANCH  14  20
ATOM     20  N   UNL     1      -2.500   1.107   0.842  1.00  0.00    -0.321 N 
ATOM     21  C   UNL     1      -2.312   2.215  -0.045  1.00  0.00     0.276 CG0
ATOM     22  H   UNL     1      -3.136   1.250   1.659  1.00  0.00     0.170 HD
ATOM     23  O   UNL     1      -2.839   3.326   0.234  1.00  0.00    -0.269 OA
ATOM     24  G   UNL     1      -1.494   2.059  -1.295  1.00  0.00     0.000 G0
ENDBRANCH  14  20
ENDBRANCH   2  13
TORSDOF 2
