REMARK SMILES Cc1cc(-c2ccccc2)nnc1NCCN1CCOCC1
REMARK SMILES IDX 15 1 14 2 13 4 1 5 2 6 3 7 4 8 12 9 11 10 5 11 6 12 10 13
REMARK SMILES IDX 7 14 9 15 8 16 16 17 17 18 18 19 22 20 19 21 21 22 20 23
REMARK H PARENT 14 3
REMARK Flexibility Score: inf
ROOT
ATOM      1  C   UNL     1      -1.730   0.029   2.470  1.00  0.00     0.130 C 
ENDROOT
BRANCH   1   2
ATOM      2  N   UNL     1      -0.702   0.970   2.024  1.00  0.00    -0.367 N 
ATOM      3  H   UNL     1      -0.848   1.978   2.252  1.00  0.00     0.162 HD
BRANCH   2   4
ATOM      4  C   UNL     1       0.484   0.547   1.327  1.00  0.00     0.151 A 
ATOM      5  C   UNL     1       1.044   2.950   0.704  1.00  0.00     0.048 C 
ATOM      6  C   UNL     1       1.339   1.475   0.699  1.00  0.00    -0.005 A 
ATOM      7  C   UNL     1       2.482   0.997   0.045  1.00  0.00     0.038 A 
ATOM      8  C   UNL     1       2.753  -0.378   0.026  1.00  0.00     0.093 A 
ATOM      9  N   UNL     1       0.792  -0.777   1.265  1.00  0.00    -0.132 NA
ATOM     10  N   UNL     1       1.881  -1.221   0.638  1.00  0.00    -0.148 NA
BRANCH   8  11
ATOM     11  C   UNL     1       3.948  -0.935  -0.660  1.00  0.00     0.002 A 
ATOM     12  C   UNL     1       5.142  -0.195  -0.774  1.00  0.00     0.010 A 
ATOM     13  C   UNL     1       3.907  -2.240  -1.188  1.00  0.00     0.010 A 
ATOM     14  C   UNL     1       6.256  -0.742  -1.417  1.00  0.00     0.001 A 
ATOM     15  C   UNL     1       5.024  -2.781  -1.830  1.00  0.00     0.001 A 
ATOM     16  C   UNL     1       6.197  -2.033  -1.947  1.00  0.00     0.000 A 
ENDBRANCH   8  11
ENDBRANCH   2   4
ENDBRANCH   1   2
BRANCH   1  17
ATOM     17  C   UNL     1      -2.510  -0.532   1.276  1.00  0.00     0.106 C 
BRANCH  17  18
ATOM     18  N   UNL     1      -3.064   0.575   0.461  1.00  0.00    -0.297 NA
ATOM     19  C   UNL     1      -3.046   0.285  -0.987  1.00  0.00     0.113 C 
ATOM     20  C   UNL     1      -4.415   0.988   0.898  1.00  0.00     0.113 C 
ATOM     21  C   UNL     1      -4.182  -0.670  -1.376  1.00  0.00     0.175 C 
ATOM     22  C   UNL     1      -5.507   0.033   0.379  1.00  0.00     0.175 C 
ATOM     23  O   UNL     1      -5.432  -0.115  -1.024  1.00  0.00    -0.379 OA
ENDBRANCH  17  18
ENDBRANCH   1  17
TORSDOF 5
