REMARK SMILES CN(N=O)C(=O)N[C@@H]1[C@@H](O)[C@H](O)[C@@H](CO)O[C@@H]1O
REMARK SMILES IDX 8 1 17 2 16 3 13 4 11 5 9 6 7 7 5 8 6 9 2 11 1 12 3 13 4 14
REMARK SMILES IDX 18 15 10 17 12 19 14 21 15 22
REMARK H PARENT 7 10 18 16 10 18 12 20 15 23
REMARK Flexibility Score: inf
ROOT
ATOM      1  C   UNL     1      -0.127  -0.362  -0.142  1.00  0.00     0.171 C 
ATOM      2  C   UNL     1       0.187   1.122  -0.482  1.00  0.00     0.272 C 
ATOM      3  O   UNL     1       1.545   1.322  -0.848  1.00  0.00    -0.342 OA
ATOM      4  C   UNL     1       2.442   0.928   0.179  1.00  0.00     0.178 C 
ATOM      5  C   UNL     1       2.320  -0.590   0.459  1.00  0.00     0.176 C 
ATOM      6  C   UNL     1       0.879  -0.926   0.886  1.00  0.00     0.173 C 
ENDROOT
BRANCH   1   7
ATOM      7  N   UNL     1      -1.504  -0.496   0.350  1.00  0.00    -0.326 N 
ATOM      8  C   UNL     1      -2.643  -0.358  -0.512  1.00  0.00     0.340 C 
ATOM      9  O   UNL     1      -2.485  -0.334  -1.764  1.00  0.00    -0.247 OA
ATOM     10  H   UNL     1      -1.668  -0.766   1.346  1.00  0.00     0.166 HD
BRANCH   8  11
ATOM     11  N   UNL     1      -3.972  -0.291   0.038  1.00  0.00    -0.182 N 
ATOM     12  C   UNL     1      -5.106  -0.768  -0.747  1.00  0.00     0.183 C 
BRANCH  11  13
ATOM     13  N   UNL     1      -4.236   0.378   1.247  1.00  0.00     0.061 NA
ATOM     14  O   UNL     1      -3.360   1.045   1.836  1.00  0.00    -0.125 OA
ENDBRANCH  11  13
ENDBRANCH   8  11
ENDBRANCH   1   7
BRANCH   2  15
ATOM     15  O   UNL     1      -0.215   2.036   0.514  1.00  0.00    -0.366 OA
ATOM     16  H   UNL     1      -0.020   1.649   1.404  1.00  0.00     0.213 HD
ENDBRANCH   2  15
BRANCH   6  17
ATOM     17  O   UNL     1       0.714  -2.314   1.040  1.00  0.00    -0.388 OA
ATOM     18  H   UNL     1       0.895  -2.742   0.163  1.00  0.00     0.211 HD
ENDBRANCH   6  17
BRANCH   5  19
ATOM     19  O   UNL     1       3.235  -1.007   1.443  1.00  0.00    -0.388 OA
ATOM     20  H   UNL     1       3.050  -0.486   2.268  1.00  0.00     0.211 HD
ENDBRANCH   5  19
BRANCH   4  21
ATOM     21  C   UNL     1       3.867   1.311  -0.249  1.00  0.00     0.191 C 
BRANCH  21  22
ATOM     22  O   UNL     1       4.204   0.712  -1.473  1.00  0.00    -0.394 OA
ATOM     23  H   UNL     1       4.650  -0.149  -1.261  1.00  0.00     0.210 HD
ENDBRANCH  21  22
ENDBRANCH   4  21
TORSDOF 8
