REMARK SMILES CC(C)Cn1cnc2c(N)nc3ccccc3c21
REMARK SMILES IDX 5 1 6 2 7 3 8 4 18 5 17 6 12 7 13 8 14 9 15 10 16 11 11 12
REMARK SMILES IDX 9 13 4 14 2 15 1 16 3 17 10 18
REMARK H PARENT 10 19 10 20
REMARK Flexibility Score: inf
ROOT
ATOM      1  N   UNL     1       0.510   0.757   1.078  1.00  0.00    -0.330 N 
ATOM      2  C   UNL     1       0.443   2.031   1.540  1.00  0.00     0.200 A 
ATOM      3  N   UNL     1      -0.758   2.617   1.338  1.00  0.00    -0.233 NA
ATOM      4  C   UNL     1      -1.465   1.656   0.720  1.00  0.00     0.131 A 
ATOM      5  C   UNL     1      -0.718   0.518   0.549  1.00  0.00     0.081 A 
ATOM      6  C   UNL     1      -1.278  -0.623  -0.086  1.00  0.00     0.026 A 
ATOM      7  C   UNL     1      -2.634  -0.503  -0.522  1.00  0.00     0.075 A 
ATOM      8  C   UNL     1      -3.268  -1.577  -1.157  1.00  0.00     0.029 A 
ATOM      9  C   UNL     1      -2.582  -2.772  -1.368  1.00  0.00     0.002 A 
ATOM     10  C   UNL     1      -1.260  -2.904  -0.948  1.00  0.00     0.001 A 
ATOM     11  C   UNL     1      -0.608  -1.843  -0.311  1.00  0.00     0.012 A 
ATOM     12  N   UNL     1      -3.331   0.656  -0.327  1.00  0.00    -0.229 NA
ATOM     13  C   UNL     1      -2.783   1.742   0.283  1.00  0.00     0.152 A 
ENDROOT
BRANCH   1  14
ATOM     14  C   UNL     1       1.717  -0.070   1.156  1.00  0.00     0.126 C 
BRANCH  14  15
ATOM     15  C   UNL     1       2.446  -0.128  -0.205  1.00  0.00     0.003 C 
ATOM     16  C   UNL     1       3.530  -1.212  -0.180  1.00  0.00     0.009 C 
ATOM     17  C   UNL     1       3.065   1.231  -0.561  1.00  0.00     0.009 C 
ENDBRANCH  14  15
ENDBRANCH   1  14
BRANCH  13  18
ATOM     18  N   UNL     1      -3.555   2.930   0.463  1.00  0.00    -0.382 N 
ATOM     19  H   UNL     1      -4.542   2.969   0.126  1.00  0.00     0.158 HD
ATOM     20  H   UNL     1      -3.150   3.772   0.929  1.00  0.00     0.158 HD
ENDBRANCH  13  18
TORSDOF 3
