REMARK SMILES C[C@H](O)[C@H](O)[C@H]1CNc2nc(N)[nH]c(=O)c2N1
REMARK SMILES IDX 4 1 6 2 7 3 17 4 8 5 16 6 9 8 14 10 10 11 15 12 13 13 11 14
REMARK SMILES IDX 12 16 5 19 2 21 1 22 3 23
REMARK H PARENT 17 7 8 9 13 15 12 17 12 18 5 20 3 24
REMARK Flexibility Score: inf
ROOT
ATOM      1  C   UNL     1      -2.183  -0.718   0.611  1.00  0.00     0.166 C 
ENDROOT
BRANCH   1   2
ATOM      2  C   UNL     1      -0.837  -0.274  -0.046  1.00  0.00     0.130 C 
ATOM      3  C   UNL     1      -0.541   1.240   0.074  1.00  0.00     0.142 C 
ATOM      4  N   UNL     1       0.299  -1.018   0.524  1.00  0.00    -0.370 N 
ATOM      5  N   UNL     1       0.757   1.539  -0.531  1.00  0.00    -0.366 N 
ATOM      6  C   UNL     1       1.644  -0.606   0.228  1.00  0.00     0.144 A 
ATOM      7  H   UNL     1       0.143  -1.864   1.118  1.00  0.00     0.161 HD
ATOM      8  C   UNL     1       1.867   0.660  -0.321  1.00  0.00     0.159 A 
ATOM      9  H   UNL     1       0.888   2.428  -1.064  1.00  0.00     0.162 HD
ATOM     10  C   UNL     1       2.750  -1.433   0.463  1.00  0.00     0.277 A 
ATOM     11  N   UNL     1       3.127   1.051  -0.640  1.00  0.00    -0.195 NA
ATOM     12  O   UNL     1       2.596  -2.579   0.966  1.00  0.00    -0.267 OA
ATOM     13  N   UNL     1       3.998  -0.999   0.136  1.00  0.00    -0.291 N 
ATOM     14  C   UNL     1       4.190   0.232  -0.418  1.00  0.00     0.202 A 
ATOM     15  H   UNL     1       4.820  -1.621   0.309  1.00  0.00     0.173 HD
BRANCH  14  16
ATOM     16  N   UNL     1       5.504   0.671  -0.763  1.00  0.00    -0.369 N 
ATOM     17  H   UNL     1       6.332   0.057  -0.598  1.00  0.00     0.159 HD
ATOM     18  H   UNL     1       5.651   1.614  -1.186  1.00  0.00     0.159 HD
ENDBRANCH  14  16
ENDBRANCH   1   2
BRANCH   1  19
ATOM     19  O   UNL     1      -2.432  -0.038   1.819  1.00  0.00    -0.388 OA
ATOM     20  H   UNL     1      -2.744   0.877   1.600  1.00  0.00     0.211 HD
ENDBRANCH   1  19
BRANCH   1  21
ATOM     21  C   UNL     1      -3.409  -0.709  -0.351  1.00  0.00     0.142 C 
ATOM     22  C   UNL     1      -3.705   0.634  -1.036  1.00  0.00     0.041 C 
BRANCH  21  23
ATOM     23  O   UNL     1      -4.555  -1.180   0.315  1.00  0.00    -0.391 OA
ATOM     24  H   UNL     1      -4.823  -0.491   0.977  1.00  0.00     0.211 HD
ENDBRANCH  21  23
ENDBRANCH   1  21
TORSDOF 5
