REMARK SMILES CC(C)NCC(O)COc1ccc(CC(N)=O)cc1
REMARK SMILES IDX 8 1 6 2 5 3 4 4 2 6 1 7 3 8 7 9 9 11 10 12 11 13 19 14 12 15
REMARK SMILES IDX 18 16 13 17 14 18 15 19 16 20 17 21
REMARK H PARENT 4 5 7 10 16 22 16 23
REMARK Flexibility Score: inf
ROOT
ATOM      1  C   UNL     1      -0.744  -1.015   0.798  1.00  0.00     0.262 C 
ENDROOT
BRANCH   1   2
ATOM      2  C   UNL     1      -1.124  -0.551  -0.617  1.00  0.00     0.165 C 
BRANCH   2   3
ATOM      3  C   UNL     1      -2.525   0.086  -0.655  1.00  0.00     0.116 C 
BRANCH   3   4
ATOM      4  N   UNL     1      -3.568  -0.915  -0.375  1.00  0.00    -0.312 NA
ATOM      5  H   UNL     1      -3.572  -1.064   0.662  1.00  0.00     0.123 HD
BRANCH   4   6
ATOM      6  C   UNL     1      -4.903  -0.444  -0.799  1.00  0.00     0.047 C 
ATOM      7  C   UNL     1      -5.132  -0.788  -2.277  1.00  0.00     0.024 C 
ATOM      8  C   UNL     1      -6.001  -1.102   0.052  1.00  0.00     0.024 C 
ENDBRANCH   4   6
ENDBRANCH   3   4
ENDBRANCH   2   3
BRANCH   2   9
ATOM      9  O   UNL     1      -1.064  -1.645  -1.496  1.00  0.00    -0.388 OA
ATOM     10  H   UNL     1      -1.046  -1.274  -2.416  1.00  0.00     0.211 HD
ENDBRANCH   2   9
ENDBRANCH   1   2
BRANCH   1  11
ATOM     11  O   UNL     1       0.615  -1.453   0.838  1.00  0.00    -0.491 OA
BRANCH  11  12
ATOM     12  C   UNL     1       1.744  -0.617   0.847  1.00  0.00     0.119 A 
ATOM     13  C   UNL     1       1.654   0.787   0.922  1.00  0.00     0.047 A 
ATOM     14  C   UNL     1       3.008  -1.216   0.783  1.00  0.00     0.047 A 
ATOM     15  C   UNL     1       2.813   1.568   0.928  1.00  0.00     0.008 A 
ATOM     16  C   UNL     1       4.167  -0.435   0.789  1.00  0.00     0.008 A 
ATOM     17  C   UNL     1       4.078   0.963   0.872  1.00  0.00    -0.038 A 
BRANCH  17  18
ATOM     18  C   UNL     1       5.322   1.807   0.844  1.00  0.00     0.135 C 
BRANCH  18  19
ATOM     19  C   UNL     1       5.649   2.197  -0.565  1.00  0.00     0.221 C 
ATOM     20  N   UNL     1       6.394   1.314  -1.404  1.00  0.00    -0.369 N 
ATOM     21  O   UNL     1       5.232   3.293  -1.025  1.00  0.00    -0.275 OA
ATOM     22  H   UNL     1       6.607   1.581  -2.391  1.00  0.00     0.159 HD
ATOM     23  H   UNL     1       6.731   0.394  -1.043  1.00  0.00     0.159 HD
ENDBRANCH  18  19
ENDBRANCH  17  18
ENDBRANCH  11  12
ENDBRANCH   1  11
TORSDOF 9
