REMARK SMILES CCCc1c2oc(C(=O)O)cc(=O)c2cc2c(=O)cc(C(=O)O)n(CC)c12
REMARK SMILES IDX 4 1 27 2 24 3 20 4 19 5 17 6 18 7 16 8 15 9 14 10 5 11 6 12
REMARK SMILES IDX 7 13 11 14 12 15 13 16 3 17 2 18 1 19 25 20 26 21 21 22
REMARK SMILES IDX 22 23 23 24 8 26 9 27 10 28
REMARK H PARENT 23 25 10 29
REMARK Flexibility Score: inf
ROOT
ATOM      1  C   UNL     1       0.354   0.146  -0.121  1.00  0.00     0.020 A 
ATOM      2  C   UNL     1      -0.818  -0.593   0.219  1.00  0.00     0.060 A 
ATOM      3  N   UNL     1      -2.096  -0.107   0.013  1.00  0.00    -0.335 N 
ATOM      4  C   UNL     1      -3.138  -0.607   0.770  1.00  0.00     0.131 A 
ATOM      5  C   UNL     1      -2.977  -1.815   1.460  1.00  0.00     0.086 A 
ATOM      6  C   UNL     1      -1.761  -2.486   1.414  1.00  0.00     0.190 A 
ATOM      7  O   UNL     1      -1.660  -3.618   1.962  1.00  0.00    -0.289 OA
ATOM      8  C   UNL     1      -0.658  -1.879   0.796  1.00  0.00     0.047 A 
ATOM      9  C   UNL     1       0.592  -2.519   0.756  1.00  0.00     0.030 A 
ATOM     10  C   UNL     1       1.703  -1.872   0.201  1.00  0.00     0.066 A 
ATOM     11  C   UNL     1       1.590  -0.529  -0.215  1.00  0.00     0.144 A 
ATOM     12  O   UNL     1       2.661   0.113  -0.680  1.00  0.00    -0.448 OA
ATOM     13  C   UNL     1       3.861  -0.452  -0.791  1.00  0.00     0.215 A 
ATOM     14  C   UNL     1       4.043  -1.785  -0.404  1.00  0.00     0.107 A 
ATOM     15  C   UNL     1       2.957  -2.499   0.101  1.00  0.00     0.193 A 
ATOM     16  O   UNL     1       3.116  -3.697   0.463  1.00  0.00    -0.289 OA
ENDROOT
BRANCH   1  17
ATOM     17  C   UNL     1       0.368   1.670  -0.138  1.00  0.00     0.041 C 
BRANCH  17  18
ATOM     18  C   UNL     1       1.101   2.230   1.091  1.00  0.00     0.002 C 
ATOM     19  C   UNL     1       1.092   3.756   1.092  1.00  0.00     0.004 C 
ENDBRANCH  17  18
ENDBRANCH   1  17
BRANCH   3  20
ATOM     20  C   UNL     1      -2.403   0.642  -1.234  1.00  0.00     0.119 C 
ATOM     21  C   UNL     1      -3.252  -0.192  -2.197  1.00  0.00     0.027 C 
ENDBRANCH   3  20
BRANCH   4  22
ATOM     22  C   UNL     1      -4.452   0.076   0.860  1.00  0.00     0.352 C 
ATOM     23  O   UNL     1      -4.533   1.328   0.746  1.00  0.00    -0.245 OA
BRANCH  22  24
ATOM     24  O   UNL     1      -5.605  -0.660   1.119  1.00  0.00    -0.477 OA
ATOM     25  H   UNL     1      -6.507  -0.204   1.198  1.00  0.00     0.297 HD
ENDBRANCH  22  24
ENDBRANCH   4  22
BRANCH  13  26
ATOM     26  C   UNL     1       4.980   0.345  -1.318  1.00  0.00     0.371 C 
ATOM     27  O   UNL     1       4.790   1.544  -1.654  1.00  0.00    -0.243 OA
BRANCH  26  28
ATOM     28  O   UNL     1       6.248  -0.215  -1.450  1.00  0.00    -0.475 OA
ATOM     29  H   UNL     1       7.021   0.330  -1.813  1.00  0.00     0.297 HD
ENDBRANCH  26  28
ENDBRANCH  13  26
TORSDOF 7
