REMARK SMILES CCCC(C)C1(CC)C(=O)NC(=O)NC1=O
REMARK SMILES IDX 4 1 5 2 3 3 2 4 1 5 6 6 9 7 15 8 10 9 11 10 14 11 16 12
REMARK SMILES IDX 12 13 13 16 7 17 8 18
REMARK H PARENT 11 14 14 15
REMARK Flexibility Score: inf
ROOT
ATOM      1  C   UNL     1       0.346  -0.236   0.618  1.00  0.00     0.011 C 
ATOM      2  C   UNL     1       0.493  -1.633   1.267  1.00  0.00     0.009 C 
ENDROOT
BRANCH   1   3
ATOM      3  C   UNL     1       1.666   0.141  -0.120  1.00  0.00     0.004 C 
BRANCH   3   4
ATOM      4  C   UNL     1       2.757   0.637   0.844  1.00  0.00    -0.003 C 
ATOM      5  C   UNL     1       4.020   1.040   0.089  1.00  0.00     0.004 C 
ENDBRANCH   3   4
ENDBRANCH   1   3
BRANCH   1   6
ATOM      6  C   UNL     1      -0.969  -0.144  -0.268  1.00  0.00     0.131 C 
ATOM      7  C   UNL     1      -2.190  -0.359   0.637  1.00  0.00     0.243 C 
ATOM      8  C   UNL     1      -0.931  -1.190  -1.388  1.00  0.00     0.243 C 
ATOM      9  O   UNL     1      -2.233   0.189   1.773  1.00  0.00    -0.273 OA
ATOM     10  N   UNL     1      -3.324  -1.117   0.209  1.00  0.00    -0.277 N 
ATOM     11  N   UNL     1      -2.068  -1.993  -1.716  1.00  0.00    -0.277 N 
ATOM     12  O   UNL     1       0.096  -1.292  -2.112  1.00  0.00    -0.273 OA
ATOM     13  C   UNL     1      -3.269  -1.926  -0.958  1.00  0.00     0.328 C 
ATOM     14  H   UNL     1      -4.188  -1.126   0.798  1.00  0.00     0.174 HD
ATOM     15  H   UNL     1      -2.020  -2.637  -2.538  1.00  0.00     0.174 HD
ATOM     16  O   UNL     1      -4.276  -2.597  -1.309  1.00  0.00    -0.248 OA
BRANCH   6  17
ATOM     17  C   UNL     1      -1.154   1.243  -0.967  1.00  0.00     0.024 C 
ATOM     18  C   UNL     1      -1.011   2.469  -0.057  1.00  0.00     0.005 C 
ENDBRANCH   6  17
ENDBRANCH   1   6
TORSDOF 4
