REMARK SMILES Brc1c(NC2=NCCN2)ccc2nccnc12
REMARK SMILES IDX 1 1 2 2 3 3 10 4 11 5 12 6 13 7 14 8 15 9 16 10 17 11 4 12
REMARK SMILES IDX 5 13 6 15 9 16 7 17 8 18
REMARK H PARENT 4 14 9 19
REMARK Flexibility Score: inf
ROOT
ATOM      1  Br  UNL     1       0.826   2.002   2.405  1.00  0.00    -0.046 Br
ATOM      2  C   UNL     1       1.211   0.681   1.062  1.00  0.00     0.069 A 
ATOM      3  C   UNL     1       0.186  -0.137   0.539  1.00  0.00     0.057 A 
ATOM      4  C   UNL     1       0.497  -1.089  -0.449  1.00  0.00     0.030 A 
ATOM      5  C   UNL     1       1.802  -1.215  -0.932  1.00  0.00     0.033 A 
ATOM      6  C   UNL     1       2.814  -0.398  -0.426  1.00  0.00     0.090 A 
ATOM      7  N   UNL     1       4.087  -0.512  -0.889  1.00  0.00    -0.253 NA
ATOM      8  C   UNL     1       5.083   0.276  -0.405  1.00  0.00     0.132 A 
ATOM      9  C   UNL     1       4.797   1.218   0.585  1.00  0.00     0.132 A 
ATOM     10  N   UNL     1       3.526   1.336   1.052  1.00  0.00    -0.252 NA
ATOM     11  C   UNL     1       2.522   0.552   0.574  1.00  0.00     0.105 A 
ENDROOT
BRANCH   3  12
ATOM     12  N   UNL     1      -1.155  -0.036   1.050  1.00  0.00    -0.325 N 
ATOM     13  C   UNL     1      -2.326  -0.096   0.225  1.00  0.00     0.195 C 
ATOM     14  H   UNL     1      -1.294   0.139   2.071  1.00  0.00     0.170 HD
ATOM     15  N   UNL     1      -2.286  -0.057  -1.062  1.00  0.00    -0.251 NA
ATOM     16  N   UNL     1      -3.632  -0.133   0.760  1.00  0.00    -0.354 N 
ATOM     17  C   UNL     1      -3.644  -0.093  -1.591  1.00  0.00     0.167 C 
ATOM     18  C   UNL     1      -4.558  -0.132  -0.355  1.00  0.00     0.139 C 
ATOM     19  H   UNL     1      -3.885  -0.148   1.773  1.00  0.00     0.163 HD
ENDBRANCH   3  12
TORSDOF 1
