REMARK SMILES CNC(=C[N+](=O)[O-])NCCSCc1ccc(CN(C)C)o1
REMARK SMILES IDX 10 1 9 2 8 3 3 5 4 6 2 7 1 8 5 10 7 11 6 12 11 13 12 14
REMARK SMILES IDX 13 15 14 16 21 17 15 18 16 19 17 20 18 21 19 22 20 23
REMARK H PARENT 8 4 2 9
REMARK Flexibility Score: inf
ROOT
ATOM      1  C   UNL     1       1.454   1.262   2.336  1.00  0.00     0.091 C 
ENDROOT
BRANCH   1   2
ATOM      2  C   UNL     1       2.835   0.692   1.982  1.00  0.00     0.125 C 
BRANCH   2   3
ATOM      3  N   UNL     1       3.197   0.964   0.587  1.00  0.00    -0.366 N 
ATOM      4  H   UNL     1       2.604   1.615   0.025  1.00  0.00     0.162 HD
BRANCH   3   5
ATOM      5  C   UNL     1       4.324   0.369  -0.083  1.00  0.00     0.171 C 
ATOM      6  C   UNL     1       5.249  -0.340   0.595  1.00  0.00     0.424 C 
BRANCH   5   7
ATOM      7  N   UNL     1       4.450   0.583  -1.495  1.00  0.00    -0.370 N 
ATOM      8  C   UNL     1       5.522   1.414  -2.034  1.00  0.00     0.141 C 
ATOM      9  H   UNL     1       3.605   0.432  -2.090  1.00  0.00     0.161 HD
ENDBRANCH   5   7
BRANCH   6  10
ATOM     10  N   UNL     1       6.302  -1.075  -0.044  1.00  0.00     0.058 N 
ATOM     11  O   UNL     1       7.379  -1.480   0.707  1.00  0.00    -0.259 OA
ATOM     12  O   UNL     1       6.146  -1.558  -1.185  1.00  0.00    -0.259 OA
ENDBRANCH   6  10
ENDBRANCH   3   5
ENDBRANCH   2   3
ENDBRANCH   1   2
BRANCH   1  13
ATOM     13  S   UNL     1       0.106   0.082   1.953  1.00  0.00    -0.152 SA
BRANCH  13  14
ATOM     14  C   UNL     1      -0.008   0.439   0.169  1.00  0.00     0.144 C 
BRANCH  14  15
ATOM     15  C   UNL     1      -1.258  -0.171  -0.371  1.00  0.00     0.114 A 
ATOM     16  C   UNL     1      -1.375  -1.442  -0.900  1.00  0.00     0.047 A 
ATOM     17  O   UNL     1      -2.426   0.428  -0.370  1.00  0.00    -0.464 OA
ATOM     18  C   UNL     1      -2.705  -1.587  -1.235  1.00  0.00     0.047 A 
ATOM     19  C   UNL     1      -3.310  -0.395  -0.885  1.00  0.00     0.118 A 
BRANCH  19  20
ATOM     20  C   UNL     1      -4.766  -0.077  -1.032  1.00  0.00     0.159 C 
BRANCH  20  21
ATOM     21  N   UNL     1      -5.564  -0.847  -0.057  1.00  0.00    -0.302 NA
ATOM     22  C   UNL     1      -5.412  -0.293   1.300  1.00  0.00     0.105 C 
ATOM     23  C   UNL     1      -6.985  -0.822  -0.441  1.00  0.00     0.105 C 
ENDBRANCH  20  21
ENDBRANCH  19  20
ENDBRANCH  14  15
ENDBRANCH  13  14
ENDBRANCH   1  13
TORSDOF 10
