REMARK SMILES CN(C)CCc1c[nH]c2ccc(CS(=O)(=O)N3CCCC3)cc12
REMARK SMILES IDX 6 1 7 2 8 3 9 4 23 5 22 6 12 7 11 8 10 9 5 11 4 12 2 13 1 14
REMARK SMILES IDX 3 15 13 16 14 17 15 18 16 19 17 20 18 21 21 22 19 23 20 24
REMARK H PARENT 8 10
REMARK Flexibility Score: inf
ROOT
ATOM      1  C   UNL     1      -2.811   1.829   1.518  1.00  0.00    -0.021 A 
ATOM      2  C   UNL     1      -3.477   2.946   1.020  1.00  0.00     0.087 A 
ATOM      3  N   UNL     1      -2.621   3.739   0.334  1.00  0.00    -0.361 N 
ATOM      4  C   UNL     1      -1.426   3.124   0.384  1.00  0.00     0.046 A 
ATOM      5  C   UNL     1      -1.503   1.953   1.093  1.00  0.00     0.003 A 
ATOM      6  C   UNL     1      -0.403   1.107   1.243  1.00  0.00     0.015 A 
ATOM      7  C   UNL     1       0.820   1.501   0.658  1.00  0.00    -0.031 A 
ATOM      8  C   UNL     1       0.893   2.714  -0.074  1.00  0.00     0.007 A 
ATOM      9  C   UNL     1      -0.239   3.537  -0.217  1.00  0.00     0.027 A 
ATOM     10  H   UNL     1      -2.855   4.629  -0.160  1.00  0.00     0.166 HD
ENDROOT
BRANCH   1  11
ATOM     11  C   UNL     1      -3.435   0.664   2.233  1.00  0.00     0.053 C 
BRANCH  11  12
ATOM     12  C   UNL     1      -4.065  -0.327   1.247  1.00  0.00     0.088 C 
BRANCH  12  13
ATOM     13  N   UNL     1      -3.017  -0.916   0.377  1.00  0.00    -0.309 NA
ATOM     14  C   UNL     1      -3.020  -2.386   0.446  1.00  0.00     0.104 C 
ATOM     15  C   UNL     1      -3.170  -0.481  -1.020  1.00  0.00     0.104 C 
ENDBRANCH  12  13
ENDBRANCH  11  12
ENDBRANCH   1  11
BRANCH   7  16
ATOM     16  C   UNL     1       2.020   0.603   0.756  1.00  0.00     0.189 C 
BRANCH  16  17
ATOM     17  S   UNL     1       2.090  -0.500  -0.649  1.00  0.00     0.218 S 
ATOM     18  O   UNL     1       0.717  -1.070  -0.885  1.00  0.00    -0.212 OA
ATOM     19  O   UNL     1       2.512   0.271  -1.872  1.00  0.00    -0.212 OA
BRANCH  17  20
ATOM     20  N   UNL     1       3.213  -1.806  -0.328  1.00  0.00    -0.202 NA
ATOM     21  C   UNL     1       3.224  -2.763  -1.441  1.00  0.00     0.102 C 
ATOM     22  C   UNL     1       4.590  -1.304  -0.233  1.00  0.00     0.102 C 
ATOM     23  C   UNL     1       4.332  -2.356  -2.402  1.00  0.00     0.018 C 
ATOM     24  C   UNL     1       5.241  -1.437  -1.603  1.00  0.00     0.018 C 
ENDBRANCH  17  20
ENDBRANCH  16  17
ENDBRANCH   7  16
TORSDOF 6
