REMARK SMILES CN1C(=O)OC(C)(C)C1=O
REMARK SMILES IDX 1 1 2 2 3 3 4 4 5 5 6 6 7 7 8 8 9 9 10 10
REMARK H PARENT
REMARK Flexibility Score: inf
ROOT
ATOM      1  C   UNL     1       2.799  -0.354   0.217  1.00  0.00     0.160 C 
ATOM      2  N   UNL     1       1.432  -0.233  -0.273  1.00  0.00    -0.247 N 
ATOM      3  C   UNL     1       0.695  -1.247  -0.933  1.00  0.00     0.417 C 
ATOM      4  O   UNL     1       1.226  -2.233  -1.510  1.00  0.00    -0.224 OA
ATOM      5  O   UNL     1      -0.679  -1.057  -0.857  1.00  0.00    -0.433 OA
ATOM      6  C   UNL     1      -0.963   0.111  -0.085  1.00  0.00     0.187 C 
ATOM      7  C   UNL     1      -1.784  -0.265   1.151  1.00  0.00     0.067 C 
ATOM      8  C   UNL     1      -1.684   1.149  -0.950  1.00  0.00     0.067 C 
ATOM      9  C   UNL     1       0.415   0.582   0.296  1.00  0.00     0.275 C 
ATOM     10  O   UNL     1       0.656   1.566   1.046  1.00  0.00    -0.270 OA
ENDROOT
TORSDOF 0
