REMARK SMILES C[C@@H]1C[C@H]2[C@H]3[C@H]([C@@H](O)C[C@]2(C)[C@@]1(O)C(=O)CO)[C@@]1(C)C=CC(=O)C=C1C[C@H]3Cl
REMARK SMILES IDX 14 1 15 2 12 3 4 4 3 5 10 6 5 7 2 8 11 9 9 10 6 11 27 12
REMARK SMILES IDX 1 13 7 14 18 15 28 16 26 17 25 18 20 19 19 20 24 21 21 22
REMARK SMILES IDX 22 23 23 24 13 25 8 27 16 29 17 30
REMARK H PARENT 13 26 8 28 17 31
REMARK Flexibility Score: inf
ROOT
ATOM      1  C   UNL     1      -4.092  -0.050  -0.660  1.00  0.00     0.190 C 
ATOM      2  O   UNL     1      -4.549  -1.167  -0.859  1.00  0.00    -0.294 OA
ENDROOT
BRANCH   1   3
ATOM      3  C   UNL     1      -2.862   0.124   0.244  1.00  0.00     0.133 C 
ATOM      4  C   UNL     1      -0.636  -0.391   0.854  1.00  0.00     0.004 C 
ATOM      5  C   UNL     1      -1.453  -1.238   1.819  1.00  0.00     0.011 C 
ATOM      6  C   UNL     1      -1.498  -0.289  -0.418  1.00  0.00     0.009 C 
ATOM      7  C   UNL     1       0.829  -0.699   0.507  1.00  0.00     0.018 C 
ATOM      8  C   UNL     1      -2.919  -0.836   1.496  1.00  0.00     0.026 C 
ATOM      9  C   UNL     1      -1.660  -1.669  -1.158  1.00  0.00     0.015 C 
ATOM     10  C   UNL     1      -0.830   0.695  -1.444  1.00  0.00     0.042 C 
ATOM     11  C   UNL     1       1.468   0.609  -0.069  1.00  0.00     0.036 C 
ATOM     12  C   UNL     1       1.658  -1.274   1.668  1.00  0.00     0.089 C 
ATOM     13  C   UNL     1      -3.631  -0.224   2.712  1.00  0.00     0.011 C 
ATOM     14  C   UNL     1       0.435   1.456  -0.948  1.00  0.00     0.119 C 
ATOM     15  C   UNL     1       2.929   0.352  -0.609  1.00  0.00     0.013 C 
ATOM     16  Cl  UNL     1       1.775  -0.167   3.075  1.00  0.00    -0.122 Cl
ATOM     17  C   UNL     1       3.051  -1.648   1.151  1.00  0.00     0.052 C 
ATOM     18  C   UNL     1       3.718  -0.501   0.419  1.00  0.00    -0.055 C 
ATOM     19  C   UNL     1       3.654   1.688  -0.836  1.00  0.00    -0.012 C 
ATOM     20  C   UNL     1       2.912  -0.421  -1.947  1.00  0.00     0.021 C 
ATOM     21  C   UNL     1       5.053  -0.378   0.534  1.00  0.00     0.052 C 
ATOM     22  C   UNL     1       4.975   1.818  -0.696  1.00  0.00     0.048 C 
ATOM     23  C   UNL     1       5.756   0.737  -0.100  1.00  0.00     0.178 C 
ATOM     24  O   UNL     1       7.014   0.799  -0.072  1.00  0.00    -0.290 OA
BRANCH   3  25
ATOM     25  O   UNL     1      -2.803   1.457   0.719  1.00  0.00    -0.381 OA
ATOM     26  H   UNL     1      -2.631   2.072  -0.036  1.00  0.00     0.212 HD
ENDBRANCH   3  25
BRANCH  14  27
ATOM     27  O   UNL     1       1.048   2.059  -2.057  1.00  0.00    -0.393 OA
ATOM     28  H   UNL     1       0.474   2.822  -2.333  1.00  0.00     0.210 HD
ENDBRANCH  14  27
ENDBRANCH   1   3
BRANCH   1  29
ATOM     29  C   UNL     1      -4.779   1.139  -1.291  1.00  0.00     0.234 C 
BRANCH  29  30
ATOM     30  O   UNL     1      -5.864   0.738  -2.085  1.00  0.00    -0.388 OA
ATOM     31  H   UNL     1      -5.483   0.394  -2.935  1.00  0.00     0.211 HD
ENDBRANCH  29  30
ENDBRANCH   1  29
TORSDOF 5
