REMARK SMILES CC[C@H](C)[C@H](N)C1=N[C@H](C(=O)N[C@@H](CC(C)C)C(=O)N[C@H](CCC(=O)O)C(=O)N[C@H](C(=O)N[C@H]2CCCCNC(=O)[C@H](CC(N)=O)NC(=O)[C@@H](CC(=O)O)NC(=O)[C@H](Cc3c[nH]cn3)NC(=O)[C@@H](Cc3ccccc3)NC(=O)[C@H]([C@@H](C)CC)NC(=O)[C@@H](CCCN)NC2=O)[C@@H](C)CC)CS1
REMARK SMILES IDX 34 1 33 2 31 3 32 4 30 6 29 7 27 8 28 9 21 11 20 12 18 13
REMARK SMILES IDX 19 14 13 16 12 17 10 18 11 19 9 21 7 22 8 23 100 24 99 25
REMARK SMILES IDX 5 26 3 27 4 28 2 29 1 30 6 31 14 34 15 35 16 36 17 37 22 38
REMARK SMILES IDX 23 39 24 40 25 41 26 42 95 44 96 45 97 46 98 47 35 48 36 49
REMARK SMILES IDX 37 50 38 51 39 52 40 53 41 55 42 56 43 57 44 58 45 59 46 60
REMARK SMILES IDX 47 63 48 64 49 66 50 67 51 68 52 69 53 70 54 71 55 73 56 74
REMARK SMILES IDX 57 76 93 78 92 79 94 80 87 82 85 83 84 84 86 85 79 87 77 88
REMARK SMILES IDX 76 89 78 90 68 92 66 93 65 94 67 95 58 97 59 99 60 100
REMARK SMILES IDX 61 101 64 102 62 103 63 104 69 106 70 107 71 108 75 109
REMARK SMILES IDX 72 110 74 111 73 112 80 113 81 114 82 115 83 116 88 117
REMARK SMILES IDX 89 118 90 119 91 120
REMARK H PARENT 33 5 29 10 20 15 12 20 6 32 6 33 26 43 39 54 45 61 45 62 47 65
REMARK H PARENT 54 72 55 75 92 81 84 86 76 91 65 96 62 105 91 121 91 122
REMARK Flexibility Score: 70.00
ROOT
ATOM      1  C   UNL     1      -0.354  -1.164  -1.083  1.00  0.00     0.171 C 
ENDROOT
BRANCH   1   2
ATOM      2  N   UNL     1       0.955  -0.653  -1.512  1.00  0.00    -0.343 N 
ATOM      3  C   UNL     1       2.182  -0.943  -0.819  1.00  0.00     0.243 C 
ATOM      4  O   UNL     1       2.154  -1.554   0.286  1.00  0.00    -0.273 OA
ATOM      5  H   UNL     1       1.003  -0.134  -2.418  1.00  0.00     0.164 HD
BRANCH   3   6
ATOM      6  C   UNL     1       3.509  -0.559  -1.437  1.00  0.00     0.174 C 
BRANCH   6   7
ATOM      7  N   UNL     1       4.202   0.411  -0.576  1.00  0.00    -0.342 N 
ATOM      8  C   UNL     1       4.747   0.134   0.728  1.00  0.00     0.243 C 
ATOM      9  O   UNL     1       4.661  -1.017   1.231  1.00  0.00    -0.273 OA
ATOM     10  H   UNL     1       4.306   1.380  -0.952  1.00  0.00     0.164 HD
BRANCH   8  11
ATOM     11  C   UNL     1       5.406   1.238   1.518  1.00  0.00     0.172 C 
BRANCH  11  12
ATOM     12  N   UNL     1       6.737   0.796   1.953  1.00  0.00    -0.343 N 
ATOM     13  C   UNL     1       7.933   1.082   1.208  1.00  0.00     0.243 C 
ATOM     14  O   UNL     1       7.887   1.827   0.193  1.00  0.00    -0.273 OA
ATOM     15  H   UNL     1       6.798   0.130   2.755  1.00  0.00     0.164 HD
BRANCH  13  16
ATOM     16  C   UNL     1       9.251   0.483   1.638  1.00  0.00     0.171 C 
BRANCH  16  17
ATOM     17  N   UNL     1       9.640  -0.563   0.686  1.00  0.00    -0.342 N 
ATOM     18  C   UNL     1      10.467  -1.675   1.071  1.00  0.00     0.246 C 
ATOM     19  O   UNL     1      10.721  -1.878   2.288  1.00  0.00    -0.273 OA
ATOM     20  H   UNL     1       9.459  -0.409  -0.333  1.00  0.00     0.164 HD
BRANCH  18  21
ATOM     21  C   UNL     1      11.053  -2.564   0.003  1.00  0.00     0.205 C 
ATOM     22  C   UNL     1      12.912  -2.370  -1.334  1.00  0.00     0.086 C 
ATOM     23  N   UNL     1      11.860  -1.789  -0.896  1.00  0.00    -0.267 NA
ATOM     24  S   UNL     1      13.183  -4.034  -0.751  1.00  0.00    -0.107 SA
ATOM     25  C   UNL     1      11.962  -3.680   0.546  1.00  0.00     0.113 C 
BRANCH  22  26
ATOM     26  C   UNL     1      13.922  -1.640  -2.191  1.00  0.00     0.109 C 
BRANCH  26  27
ATOM     27  C   UNL     1      14.399  -0.313  -1.525  1.00  0.00     0.009 C 
ATOM     28  C   UNL     1      14.933  -0.569  -0.104  1.00  0.00     0.010 C 
BRANCH  27  29
ATOM     29  C   UNL     1      15.510   0.399  -2.343  1.00  0.00     0.002 C 
ATOM     30  C   UNL     1      14.997   1.137  -3.580  1.00  0.00     0.004 C 
ENDBRANCH  27  29
ENDBRANCH  26  27
BRANCH  26  31
ATOM     31  N   UNL     1      13.348  -1.391  -3.516  1.00  0.00    -0.322 NA
ATOM     32  H   UNL     1      12.452  -0.862  -3.412  1.00  0.00     0.119 HD
ATOM     33  H   UNL     1      13.121  -2.310  -3.967  1.00  0.00     0.119 HD
ENDBRANCH  26  31
ENDBRANCH  22  26
ENDBRANCH  18  21
ENDBRANCH  16  17
BRANCH  16  34
ATOM     34  C   UNL     1      10.379   1.535   1.732  1.00  0.00     0.038 C 
BRANCH  34  35
ATOM     35  C   UNL     1      10.250   2.490   2.951  1.00  0.00    -0.015 C 
ATOM     36  C   UNL     1       9.295   3.659   2.669  1.00  0.00     0.007 C 
ATOM     37  C   UNL     1      11.631   3.039   3.347  1.00  0.00     0.007 C 
ENDBRANCH  34  35
ENDBRANCH  16  34
ENDBRANCH  13  16
ENDBRANCH  11  12
BRANCH  11  38
ATOM     38  C   UNL     1       4.533   1.604   2.738  1.00  0.00     0.047 C 
BRANCH  38  39
ATOM     39  C   UNL     1       5.062   2.826   3.509  1.00  0.00     0.125 C 
BRANCH  39  40
ATOM     40  C   UNL     1       4.952   4.103   2.728  1.00  0.00     0.303 C 
ATOM     41  O   UNL     1       3.867   4.412   2.167  1.00  0.00    -0.252 OA
BRANCH  40  42
ATOM     42  O   UNL     1       6.030   4.980   2.686  1.00  0.00    -0.481 OA
ATOM     43  H   UNL     1       5.967   5.857   2.180  1.00  0.00     0.296 HD
ENDBRANCH  40  42
ENDBRANCH  39  40
ENDBRANCH  38  39
ENDBRANCH  11  38
ENDBRANCH   8  11
ENDBRANCH   6   7
BRANCH   6  44
ATOM     44  C   UNL     1       4.392  -1.796  -1.795  1.00  0.00     0.018 C 
ATOM     45  C   UNL     1       3.577  -2.824  -2.609  1.00  0.00     0.010 C 
BRANCH  44  46
ATOM     46  C   UNL     1       5.655  -1.410  -2.610  1.00  0.00     0.002 C 
ATOM     47  C   UNL     1       6.762  -0.772  -1.771  1.00  0.00     0.004 C 
ENDBRANCH  44  46
ENDBRANCH   6  44
ENDBRANCH   3   6
ENDBRANCH   1   2
BRANCH   1  48
ATOM     48  C   UNL     1      -1.393  -0.034  -1.139  1.00  0.00     0.035 C 
BRANCH  48  49
ATOM     49  C   UNL     1      -0.973   1.262  -0.421  1.00  0.00     0.004 C 
BRANCH  49  50
ATOM     50  C   UNL     1      -2.222   2.085  -0.068  1.00  0.00     0.021 C 
BRANCH  50  51
ATOM     51  C   UNL     1      -1.917   3.505   0.439  1.00  0.00     0.116 C 
BRANCH  51  52
ATOM     52  N   UNL     1      -2.306   4.521  -0.545  1.00  0.00    -0.354 N 
ATOM     53  C   UNL     1      -3.650   4.849  -0.959  1.00  0.00     0.243 C 
ATOM     54  H   UNL     1      -1.530   4.931  -1.116  1.00  0.00     0.163 HD
ATOM     55  O   UNL     1      -3.823   5.221  -2.149  1.00  0.00    -0.273 OA
BRANCH  53  56
ATOM     56  C   UNL     1      -4.862   4.861  -0.034  1.00  0.00     0.180 C 
BRANCH  56  57
ATOM     57  C   UNL     1      -4.583   5.629   1.272  1.00  0.00     0.134 C 
BRANCH  57  58
ATOM     58  C   UNL     1      -5.854   6.135   1.890  1.00  0.00     0.220 C 
ATOM     59  N   UNL     1      -6.429   7.366   1.449  1.00  0.00    -0.370 N 
ATOM     60  O   UNL     1      -6.440   5.451   2.775  1.00  0.00    -0.275 OA
ATOM     61  H   UNL     1      -5.962   7.931   0.703  1.00  0.00     0.159 HD
ATOM     62  H   UNL     1      -7.306   7.723   1.885  1.00  0.00     0.159 HD
ENDBRANCH  57  58
ENDBRANCH  56  57
BRANCH  56  63
ATOM     63  N   UNL     1      -5.315   3.491   0.237  1.00  0.00    -0.342 N 
ATOM     64  C   UNL     1      -6.683   3.066   0.417  1.00  0.00     0.243 C 
ATOM     65  H   UNL     1      -4.615   2.856   0.664  1.00  0.00     0.164 HD
ATOM     66  O   UNL     1      -6.889   2.081   1.181  1.00  0.00    -0.273 OA
BRANCH  64  67
ATOM     67  C   UNL     1      -7.879   3.728  -0.257  1.00  0.00     0.182 C 
BRANCH  67  68
ATOM     68  C   UNL     1      -7.941   3.452  -1.782  1.00  0.00     0.157 C 
BRANCH  68  69
ATOM     69  C   UNL     1      -6.858   4.120  -2.566  1.00  0.00     0.305 C 
ATOM     70  O   UNL     1      -5.924   3.441  -3.059  1.00  0.00    -0.252 OA
BRANCH  69  71
ATOM     71  O   UNL     1      -6.923   5.493  -2.796  1.00  0.00    -0.481 OA
ATOM     72  H   UNL     1      -6.220   5.963  -3.354  1.00  0.00     0.296 HD
ENDBRANCH  69  71
ENDBRANCH  68  69
ENDBRANCH  67  68
BRANCH  67  73
ATOM     73  N   UNL     1      -9.115   3.280   0.417  1.00  0.00    -0.342 N 
ATOM     74  C   UNL     1     -10.188   2.551  -0.210  1.00  0.00     0.243 CG0
ATOM     75  H   UNL     1      -9.224   3.503   1.433  1.00  0.00     0.164 HD
ATOM     76  O   UNL     1     -11.076   3.183  -0.841  1.00  0.00    -0.273 OA
ATOM     77  G   UNL     1     -10.288   1.043  -0.107  1.00  0.00     0.000 G0
ENDBRANCH  67  73
ENDBRANCH  64  67
ENDBRANCH  56  63
ENDBRANCH  53  56
ENDBRANCH  51  52
ENDBRANCH  50  51
ENDBRANCH  49  50
ENDBRANCH  48  49
ENDBRANCH   1  48
BRANCH   1  78
ATOM     78  C   UNL     1      -0.796  -2.297  -1.994  1.00  0.00     0.243 C 
ATOM     79  N   UNL     1      -1.987  -3.077  -1.756  1.00  0.00    -0.343 N 
ATOM     80  O   UNL     1      -0.145  -2.515  -3.053  1.00  0.00    -0.273 OA
ATOM     81  H   UNL     1      -2.367  -3.572  -2.596  1.00  0.00     0.164 HD
BRANCH  79  82
ATOM     82  C   UNL     1      -2.592  -3.370  -0.441  1.00  0.00     0.171 C 
BRANCH  82  83
ATOM     83  C   UNL     1      -3.921  -4.085  -0.645  1.00  0.00     0.243 C 
ATOM     84  N   UNL     1      -5.079  -3.802   0.160  1.00  0.00    -0.342 N 
ATOM     85  O   UNL     1      -3.963  -5.078  -1.422  1.00  0.00    -0.273 OA
ATOM     86  H   UNL     1      -5.295  -4.532   0.876  1.00  0.00     0.164 HD
BRANCH  84  87
ATOM     87  C   UNL     1      -6.197  -2.888  -0.170  1.00  0.00     0.174 C 
BRANCH  87  88
ATOM     88  C   UNL     1      -6.711  -3.038  -1.595  1.00  0.00     0.243 C 
ATOM     89  N   UNL     1      -8.091  -2.809  -1.954  1.00  0.00    -0.342 N 
ATOM     90  O   UNL     1      -5.902  -3.319  -2.515  1.00  0.00    -0.273 OA
ATOM     91  H   UNL     1      -8.349  -3.023  -2.943  1.00  0.00     0.164 HD
BRANCH  89  92
ATOM     92  C   UNL     1      -9.098  -2.083  -1.158  1.00  0.00     0.175 C 
BRANCH  92  93
ATOM     93  C   UNL     1      -9.218  -0.661  -1.648  1.00  0.00     0.243 C 
ATOM     94  N   UNL     1      -9.120   0.433  -0.736  1.00  0.00    -0.342 N 
ATOM     95  O   UNL     1      -9.416  -0.426  -2.873  1.00  0.00    -0.273 OA
ATOM     96  H   UNL     1      -8.187   0.672  -0.353  1.00  0.00     0.164 HD
BRANCH  94  97
ATOM     97  C   UNL     1     -10.288   1.043  -0.107  1.00  0.00     0.177 CG0
ATOM     98  G   UNL     1     -10.188   2.551  -0.210  1.00  0.00     0.000 G0
BRANCH  97  99
ATOM     99  C   UNL     1     -10.379   0.564   1.353  1.00  0.00     0.093 C 
BRANCH  99 100
ATOM    100  C   UNL     1     -11.573   1.110   2.084  1.00  0.00     0.061 A 
ATOM    101  C   UNL     1     -12.882   1.102   1.648  1.00  0.00     0.107 A 
ATOM    102  N   UNL     1     -11.522   1.552   3.360  1.00  0.00    -0.242 NA
ATOM    103  N   UNL     1     -13.651   1.576   2.638  1.00  0.00    -0.351 N 
ATOM    104  C   UNL     1     -12.807   1.836   3.656  1.00  0.00     0.196 A 
ATOM    105  H   UNL     1     -14.688   1.690   2.634  1.00  0.00     0.167 HD
ENDBRANCH  99 100
ENDBRANCH  97  99
ENDBRANCH  94  97
ENDBRANCH  92  93
BRANCH  92 106
ATOM    106  C   UNL     1     -10.471  -2.765  -1.281  1.00  0.00     0.070 C 
BRANCH 106 107
ATOM    107  C   UNL     1     -10.453  -4.178  -0.760  1.00  0.00    -0.045 A 
ATOM    108  C   UNL     1     -10.639  -4.430   0.608  1.00  0.00     0.004 A 
ATOM    109  C   UNL     1     -10.246  -5.255  -1.638  1.00  0.00     0.004 A 
ATOM    110  C   UNL     1     -10.648  -5.745   1.084  1.00  0.00     0.000 A 
ATOM    111  C   UNL     1     -10.253  -6.567  -1.156  1.00  0.00     0.000 A 
ATOM    112  C   UNL     1     -10.461  -6.813   0.204  1.00  0.00     0.000 A 
ENDBRANCH 106 107
ENDBRANCH  92 106
ENDBRANCH  89  92
ENDBRANCH  87  88
BRANCH  87 113
ATOM    113  C   UNL     1      -5.891  -1.412   0.210  1.00  0.00     0.018 C 
ATOM    114  C   UNL     1      -5.353  -1.312   1.646  1.00  0.00     0.010 C 
BRANCH 113 115
ATOM    115  C   UNL     1      -4.966  -0.673  -0.790  1.00  0.00     0.002 C 
ATOM    116  C   UNL     1      -5.700   0.110  -1.872  1.00  0.00     0.004 C 
ENDBRANCH 113 115
ENDBRANCH  87 113
ENDBRANCH  84  87
ENDBRANCH  82  83
BRANCH  82 117
ATOM    117  C   UNL     1      -1.616  -4.241   0.400  1.00  0.00     0.036 C 
BRANCH 117 118
ATOM    118  C   UNL     1      -1.586  -3.879   1.900  1.00  0.00     0.018 C 
BRANCH 118 119
ATOM    119  C   UNL     1      -2.821  -4.334   2.690  1.00  0.00     0.077 C 
BRANCH 119 120
ATOM    120  N   UNL     1      -3.089  -5.756   2.488  1.00  0.00    -0.330 NA
ATOM    121  H   UNL     1      -2.274  -6.296   2.863  1.00  0.00     0.118 HD
ATOM    122  H   UNL     1      -3.915  -6.011   3.081  1.00  0.00     0.118 HD
ENDBRANCH 119 120
ENDBRANCH 118 119
ENDBRANCH 117 118
ENDBRANCH  82 117
ENDBRANCH  79  82
ENDBRANCH   1  78
TORSDOF 35
