REMARK SMILES C[C@@H]1C[C@H]2[C@@H]3CCC4=CC(=O)C=C[C@]4(C)[C@@]3(Cl)[C@@H](O)C[C@]2(C)[C@@]1(O)C(=O)CCl
REMARK SMILES IDX 4 1 3 2 2 3 1 4 23 5 21 6 22 7 20 8 18 9 16 10 17 11 5 12
REMARK SMILES IDX 6 13 7 14 8 15 9 16 10 17 11 18 12 19 13 20 14 21 15 22
REMARK SMILES IDX 24 23 25 25 26 26 27 27 28 28 19 29
REMARK H PARENT 24 24 19 30
REMARK Flexibility Score: inf
ROOT
ATOM      1  C   UNL     1       0.733  -0.707  -0.209  1.00  0.00     0.004 C 
ATOM      2  C   UNL     1       1.698  -1.786   0.259  1.00  0.00     0.011 C 
ATOM      3  C   UNL     1       3.086  -1.294  -0.227  1.00  0.00     0.026 C 
ATOM      4  C   UNL     1       3.705  -2.275  -1.236  1.00  0.00     0.011 C 
ATOM      5  C   UNL     1       2.876   0.170  -0.785  1.00  0.00     0.132 C 
ATOM      6  C   UNL     1       1.536   0.598  -0.090  1.00  0.00     0.009 C 
ATOM      7  C   UNL     1       1.839   1.006   1.398  1.00  0.00     0.015 C 
ATOM      8  C   UNL     1       0.740   1.726  -0.815  1.00  0.00     0.044 C 
ATOM      9  C   UNL     1      -0.743   1.859  -0.353  1.00  0.00     0.137 C 
ATOM     10  C   UNL     1      -1.533   0.487  -0.318  1.00  0.00     0.086 C 
ATOM     11  Cl  UNL     1      -1.730   0.020  -2.068  1.00  0.00    -0.115 Cl
ATOM     12  C   UNL     1      -0.690  -0.638   0.406  1.00  0.00     0.018 C 
ATOM     13  C   UNL     1      -1.392  -2.015   0.323  1.00  0.00     0.010 C 
ATOM     14  C   UNL     1      -2.817  -1.966   0.878  1.00  0.00     0.032 C 
ATOM     15  C   UNL     1      -3.601  -0.850   0.231  1.00  0.00    -0.055 C 
ATOM     16  C   UNL     1      -4.798  -1.113  -0.317  1.00  0.00     0.052 C 
ATOM     17  C   UNL     1      -5.572  -0.061  -0.975  1.00  0.00     0.178 C 
ATOM     18  O   UNL     1      -6.701  -0.319  -1.469  1.00  0.00    -0.290 OA
ATOM     19  C   UNL     1      -5.020   1.289  -1.071  1.00  0.00     0.048 C 
ATOM     20  C   UNL     1      -3.837   1.578  -0.527  1.00  0.00    -0.010 C 
ATOM     21  C   UNL     1      -3.010   0.571   0.277  1.00  0.00     0.029 C 
ATOM     22  C   UNL     1      -3.099   1.037   1.754  1.00  0.00     0.022 C 
ENDROOT
BRANCH   5  23
ATOM     23  O   UNL     1       2.671   0.126  -2.184  1.00  0.00    -0.381 OA
ATOM     24  H   UNL     1       3.550   0.006  -2.629  1.00  0.00     0.212 HD
ENDBRANCH   5  23
BRANCH   5  25
ATOM     25  C   UNL     1       4.020   1.156  -0.497  1.00  0.00     0.179 C 
ATOM     26  O   UNL     1       3.869   2.326  -0.821  1.00  0.00    -0.295 OA
BRANCH  25  27
ATOM     27  C   UNL     1       5.310   0.744   0.172  1.00  0.00     0.188 C 
ATOM     28  Cl  UNL     1       6.576   1.997   0.033  1.00  0.00    -0.118 Cl
ENDBRANCH  25  27
ENDBRANCH   5  25
BRANCH   9  29
ATOM     29  O   UNL     1      -0.820   2.607   0.832  1.00  0.00    -0.391 OA
ATOM     30  H   UNL     1      -0.637   2.008   1.592  1.00  0.00     0.211 HD
ENDBRANCH   9  29
TORSDOF 4
