REMARK SMILES CCC1=C[C@@H]2CN(C1)Cc1c([nH]c3ccccc13)[C@@](C(=O)OC)(c1cc3c(cc1OC)N(C)[C@H]1[C@@](O)(C(=O)OC)[C@H](OC(C)=O)[C@]4(CC)C=CCN5CC[C@]31[C@@H]54)C2
REMARK SMILES IDX 10 1 11 2 12 3 13 4 14 5 15 6 16 7 17 8 18 9 19 11 24 13
REMARK SMILES IDX 34 14 32 15 55 16 35 17 33 18 27 19 26 20 54 21 56 22 41 23
REMARK SMILES IDX 28 24 25 25 53 26 52 27 46 28 29 29 51 30 49 31 50 32 36 33
REMARK SMILES IDX 37 35 38 36 39 37 40 38 42 39 43 40 44 41 45 42 47 43 48 44
REMARK SMILES IDX 30 45 31 46 20 47 21 48 22 49 23 50 9 51 7 52 6 53 8 54 5 55
REMARK SMILES IDX 3 56 4 57 57 58 2 60 1 61
REMARK H PARENT 12 10 36 34
REMARK Flexibility Score: 90.00
ROOT
ATOM      1  C   UNL     1       4.181   1.737   0.723  1.00  0.00    -0.004 A 
ATOM      2  C   UNL     1       2.942   1.080   0.590  1.00  0.00     0.043 A 
ATOM      3  N   UNL     1       1.940   1.973   0.818  1.00  0.00    -0.357 N 
ATOM      4  C   UNL     1       2.517   3.145   1.114  1.00  0.00     0.046 A 
ATOM      5  C   UNL     1       1.875   4.351   1.386  1.00  0.00     0.026 A 
ATOM      6  C   UNL     1       2.676   5.486   1.594  1.00  0.00     0.002 A 
ATOM      7  C   UNL     1       4.082   5.393   1.506  1.00  0.00     0.001 A 
ATOM      8  C   UNL     1       4.700   4.163   1.229  1.00  0.00     0.010 A 
ATOM      9  C   UNL     1       3.880   3.047   1.054  1.00  0.00     0.004 A 
ATOM     10  H   UNL     1       0.913   1.816   0.730  1.00  0.00     0.166 HD
ENDROOT
BRANCH   2  11
ATOM     11  C   UNL     1       2.664  -0.365   0.116  1.00  0.00     0.137 CG0
ATOM     12  G   UNL     1       2.811  -0.429  -1.453  1.00  0.00     0.000 G0
BRANCH  11  13
ATOM     13  C   UNL     1       1.231  -0.750   0.583  1.00  0.00     0.018 A 
ATOM     14  C   UNL     1      -3.398  -1.837   0.395  1.00  0.00     0.141 C 
ATOM     15  N   UNL     1      -2.798  -1.439   1.691  1.00  0.00    -0.367 N 
ATOM     16  C   UNL     1      -2.351  -1.419  -0.694  1.00  0.00     0.039 C 
ATOM     17  C   UNL     1      -4.826  -1.280   0.120  1.00  0.00     0.221 C 
ATOM     18  C   UNL     1      -3.365  -1.785   3.000  1.00  0.00     0.144 C 
ATOM     19  C   UNL     1      -1.402  -1.261   1.460  1.00  0.00     0.044 A 
ATOM     20  C   UNL     1      -1.095  -1.338   0.134  1.00  0.00    -0.014 A 
ATOM     21  C   UNL     1      -2.217  -2.468  -1.812  1.00  0.00     0.031 C 
ATOM     22  C   UNL     1      -2.547  -0.035  -1.413  1.00  0.00     0.083 C 
ATOM     23  C   UNL     1      -4.724   0.271   0.022  1.00  0.00     0.233 C 
ATOM     24  C   UNL     1      -0.422  -0.945   2.403  1.00  0.00     0.073 A 
ATOM     25  C   UNL     1       0.197  -1.077  -0.331  1.00  0.00     0.015 A 
ATOM     26  C   UNL     1      -2.237  -1.696  -3.120  1.00  0.00     0.086 C 
ATOM     27  N   UNL     1      -2.107  -0.262  -2.814  1.00  0.00    -0.295 NA
ATOM     28  C   UNL     1      -3.937   0.744  -1.257  1.00  0.00     0.045 C 
ATOM     29  C   UNL     1       0.897  -0.693   1.975  1.00  0.00     0.125 A 
ATOM     30  C   UNL     1      -2.747   0.588  -3.837  1.00  0.00     0.112 C 
ATOM     31  C   UNL     1      -4.792   0.546  -2.505  1.00  0.00    -0.018 C 
ATOM     32  C   UNL     1      -4.238   0.532  -3.716  1.00  0.00    -0.015 C 
BRANCH  17  33
ATOM     33  O   UNL     1      -5.293  -1.774  -1.114  1.00  0.00    -0.374 OA
ATOM     34  H   UNL     1      -5.373  -2.764  -1.048  1.00  0.00     0.212 HD
ENDBRANCH  17  33
BRANCH  17  35
ATOM     35  C   UNL     1      -5.795  -1.778   1.194  1.00  0.00     0.344 C 
ATOM     36  O   UNL     1      -6.599  -0.993   1.778  1.00  0.00    -0.249 OA
BRANCH  35  37
ATOM     37  O   UNL     1      -5.833  -3.149   1.482  1.00  0.00    -0.467 OA
ATOM     38  C   UNL     1      -6.720  -3.710   2.439  1.00  0.00     0.282 C 
ENDBRANCH  35  37
ENDBRANCH  17  35
BRANCH  23  39
ATOM     39  O   UNL     1      -6.032   0.862   0.038  1.00  0.00    -0.458 OA
BRANCH  39  40
ATOM     40  C   UNL     1      -6.470   1.787   0.998  1.00  0.00     0.303 C 
ATOM     41  C   UNL     1      -7.850   2.351   0.901  1.00  0.00     0.139 C 
ATOM     42  O   UNL     1      -5.716   2.164   1.936  1.00  0.00    -0.253 OA
ENDBRANCH  39  40
ENDBRANCH  23  39
BRANCH  28  43
ATOM     43  C   UNL     1      -3.619   2.288  -1.102  1.00  0.00     0.013 C 
ATOM     44  C   UNL     1      -4.696   3.269  -1.596  1.00  0.00     0.005 C 
ENDBRANCH  28  43
BRANCH  29  45
ATOM     45  O   UNL     1       1.890  -0.332   2.902  1.00  0.00    -0.496 OA
ATOM     46  C   UNL     1       1.671  -0.094   4.287  1.00  0.00     0.278 C 
ENDBRANCH  29  45
ENDBRANCH  11  13
BRANCH  11  47
ATOM     47  C   UNL     1       3.547  -1.429   0.749  1.00  0.00     0.322 C 
ATOM     48  O   UNL     1       4.209  -1.192   1.800  1.00  0.00    -0.251 OA
BRANCH  47  49
ATOM     49  O   UNL     1       3.472  -2.734   0.249  1.00  0.00    -0.468 OA
ATOM     50  C   UNL     1       4.028  -3.855   0.919  1.00  0.00     0.282 C 
ENDBRANCH  47  49
ENDBRANCH  11  47
ENDBRANCH   2  11
BRANCH   1  51
ATOM     51  C   UNL     1       5.535   1.245   0.288  1.00  0.00     0.123 C 
BRANCH  51  52
ATOM     52  N   UNL     1       5.812   1.496  -1.149  1.00  0.00    -0.294 NA
ATOM     53  C   UNL     1       4.658   1.320  -2.057  1.00  0.00     0.093 C 
ATOM     54  C   UNL     1       6.933   0.656  -1.617  1.00  0.00     0.115 C 
ATOM     55  C   UNL     1       4.175  -0.149  -2.150  1.00  0.00     0.028 C 
ATOM     56  C   UNL     1       6.548  -0.810  -1.654  1.00  0.00    -0.060 C 
ATOM     57  C   UNL     1       5.259  -1.166  -1.846  1.00  0.00    -0.022 C 
BRANCH  55  58
ATOM     58  C   UNL     1       2.811  -0.429  -1.453  1.00  0.00     0.039 CG0
ATOM     59  G   UNL     1       2.664  -0.365   0.116  1.00  0.00     0.000 G0
ENDBRANCH  55  58
BRANCH  56  60
ATOM     60  C   UNL     1       7.600  -1.855  -1.383  1.00  0.00     0.028 C 
ATOM     61  C   UNL     1       7.811  -2.042   0.121  1.00  0.00     0.009 C 
ENDBRANCH  56  60
ENDBRANCH  51  52
ENDBRANCH   1  51
TORSDOF 11
