REMARK SMILES CC(COc1ccccc1)N(CCCl)Cc1ccccc1
REMARK SMILES IDX 1 1 2 2 3 3 4 4 5 5 6 6 10 7 7 8 9 9 8 10 11 11 12 12 13 13
REMARK SMILES IDX 14 14 15 15 16 16 17 17 21 18 18 19 20 20 19 21
REMARK H PARENT
REMARK Flexibility Score: inf
ROOT
ATOM      1  C   UNL     1      -0.903  -2.586   0.014  1.00  0.00     0.028 C 
ATOM      2  C   UNL     1      -0.507  -1.231  -0.603  1.00  0.00     0.091 C 
ENDROOT
BRANCH   2   3
ATOM      3  C   UNL     1      -1.325  -0.076  -0.001  1.00  0.00     0.248 C 
BRANCH   3   4
ATOM      4  O   UNL     1      -2.689  -0.190  -0.402  1.00  0.00    -0.492 OA
BRANCH   4   5
ATOM      5  C   UNL     1      -3.700   0.713  -0.040  1.00  0.00     0.119 A 
ATOM      6  C   UNL     1      -5.001   0.474  -0.501  1.00  0.00     0.046 A 
ATOM      7  C   UNL     1      -3.452   1.842   0.766  1.00  0.00     0.046 A 
ATOM      8  C   UNL     1      -6.042   1.345  -0.166  1.00  0.00     0.004 A 
ATOM      9  C   UNL     1      -4.497   2.711   1.098  1.00  0.00     0.004 A 
ATOM     10  C   UNL     1      -5.790   2.463   0.633  1.00  0.00     0.000 A 
ENDBRANCH   4   5
ENDBRANCH   3   4
ENDBRANCH   2   3
BRANCH   2  11
ATOM     11  N   UNL     1       0.951  -0.950  -0.505  1.00  0.00    -0.292 NA
BRANCH  11  12
ATOM     12  C   UNL     1       1.745  -1.674  -1.531  1.00  0.00     0.101 C 
BRANCH  12  13
ATOM     13  C   UNL     1       2.467  -0.676  -2.433  1.00  0.00     0.125 C 
ATOM     14  Cl  UNL     1       1.302   0.330  -3.335  1.00  0.00    -0.125 Cl
ENDBRANCH  12  13
ENDBRANCH  11  12
BRANCH  11  15
ATOM     15  C   UNL     1       1.514  -1.100   0.857  1.00  0.00     0.120 C 
BRANCH  15  16
ATOM     16  C   UNL     1       2.758  -0.266   0.999  1.00  0.00    -0.034 A 
ATOM     17  C   UNL     1       2.663   1.135   1.013  1.00  0.00     0.005 A 
ATOM     18  C   UNL     1       4.023  -0.873   1.075  1.00  0.00     0.005 A 
ATOM     19  C   UNL     1       3.818   1.918   1.111  1.00  0.00     0.000 A 
ATOM     20  C   UNL     1       5.175  -0.086   1.172  1.00  0.00     0.000 A 
ATOM     21  C   UNL     1       5.073   1.308   1.191  1.00  0.00     0.000 A 
ENDBRANCH  15  16
ENDBRANCH  11  15
ENDBRANCH   2  11
TORSDOF 8
