REMARK SMILES C[N+](C)(C)C[C@H](O)CC(=O)[O-]
REMARK SMILES IDX 6 1 5 2 2 3 1 4 3 5 4 6 7 7 8 9 9 10 11 11 10 12
REMARK H PARENT 7 8
REMARK Flexibility Score: inf
ROOT
ATOM      1  C   UNL     1       1.100  -0.009  -0.763  1.00  0.00     0.175 C 
ENDROOT
BRANCH   1   2
ATOM      2  C   UNL     1       0.190   0.160   0.488  1.00  0.00     0.295 C 
BRANCH   2   3
ATOM      3  N   UNL     1      -1.280  -0.000   0.252  1.00  0.00    -0.329 N 
ATOM      4  C   UNL     1      -1.596  -1.292  -0.401  1.00  0.00     0.334 C 
ATOM      5  C   UNL     1      -1.818   1.115  -0.566  1.00  0.00     0.334 C 
ATOM      6  C   UNL     1      -1.959   0.030   1.571  1.00  0.00     0.334 C 
ENDBRANCH   2   3
ENDBRANCH   1   2
BRANCH   1   7
ATOM      7  O   UNL     1       1.267  -1.375  -1.051  1.00  0.00    -0.387 OA
ATOM      8  H   UNL     1       1.593  -1.436  -1.987  1.00  0.00     0.211 HD
ENDBRANCH   1   7
BRANCH   1   9
ATOM      9  C   UNL     1       2.480   0.646  -0.549  1.00  0.00     0.090 C 
BRANCH   9  10
ATOM     10  C   UNL     1       3.255  -0.000   0.561  1.00  0.00     0.044 C 
ATOM     11  O   UNL     1       3.987  -1.155   0.317  1.00  0.00    -0.550 OA
ATOM     12  O   UNL     1       3.220   0.482   1.723  1.00  0.00    -0.550 OA
ENDBRANCH   9  10
ENDBRANCH   1   9
TORSDOF 5
