REMARK SMILES CCN(CC)CCOc1ccc(C(=C(Cl)c2ccccc2)c2ccccc2)cc1
REMARK SMILES IDX 7 1 6 2 3 3 2 4 1 5 4 6 5 7 8 8 9 9 10 10 29 11 11 12 28 13
REMARK SMILES IDX 12 14 13 15 14 16 15 17 22 18 23 19 27 20 24 21 26 22 25 23
REMARK SMILES IDX 16 24 17 25 21 26 18 27 20 28 19 29
REMARK H PARENT
REMARK Flexibility Score: inf
ROOT
ATOM      1  C   UNL     1       3.851   1.011  -0.222  1.00  0.00     0.245 C 
ENDROOT
BRANCH   1   2
ATOM      2  C   UNL     1       4.241  -0.483  -0.173  1.00  0.00     0.126 C 
BRANCH   2   3
ATOM      3  N   UNL     1       5.543  -0.760   0.481  1.00  0.00    -0.301 NA
BRANCH   3   4
ATOM      4  C   UNL     1       5.802   0.008   1.719  1.00  0.00     0.081 C 
ATOM      5  C   UNL     1       6.745  -0.743   2.658  1.00  0.00     0.021 C 
ENDBRANCH   3   4
BRANCH   3   6
ATOM      6  C   UNL     1       6.690  -0.895  -0.449  1.00  0.00     0.081 C 
ATOM      7  C   UNL     1       7.023   0.378  -1.232  1.00  0.00     0.021 C 
ENDBRANCH   3   6
ENDBRANCH   2   3
ENDBRANCH   1   2
BRANCH   1   8
ATOM      8  O   UNL     1       2.762   1.212  -1.123  1.00  0.00    -0.492 OA
BRANCH   8   9
ATOM      9  C   UNL     1       1.424   0.862  -0.879  1.00  0.00     0.119 A 
ATOM     10  C   UNL     1       0.506   0.997  -1.927  1.00  0.00     0.047 A 
ATOM     11  C   UNL     1       0.972   0.397   0.372  1.00  0.00     0.047 A 
ATOM     12  C   UNL     1      -0.838   0.662  -1.744  1.00  0.00     0.012 A 
ATOM     13  C   UNL     1      -0.372   0.062   0.555  1.00  0.00     0.012 A 
ATOM     14  C   UNL     1      -1.285   0.177  -0.506  1.00  0.00    -0.016 A 
BRANCH  14  15
ATOM     15  C   UNL     1      -2.719  -0.145  -0.308  1.00  0.00     0.008 C 
ATOM     16  C   UNL     1      -3.108  -1.379   0.104  1.00  0.00     0.056 C 
ATOM     17  Cl  UNL     1      -1.946  -2.706   0.217  1.00  0.00    -0.083 Cl
BRANCH  15  18
ATOM     18  C   UNL     1      -3.702   0.924  -0.623  1.00  0.00    -0.016 A 
ATOM     19  C   UNL     1      -4.758   0.691  -1.521  1.00  0.00     0.009 A 
ATOM     20  C   UNL     1      -3.556   2.201  -0.052  1.00  0.00     0.009 A 
ATOM     21  C   UNL     1      -5.669   1.709  -1.818  1.00  0.00     0.001 A 
ATOM     22  C   UNL     1      -4.469   3.216  -0.354  1.00  0.00     0.001 A 
ATOM     23  C   UNL     1      -5.526   2.970  -1.233  1.00  0.00     0.000 A 
ENDBRANCH  15  18
BRANCH  16  24
ATOM     24  C   UNL     1      -4.511  -1.697   0.463  1.00  0.00    -0.006 A 
ATOM     25  C   UNL     1      -5.145  -2.816  -0.101  1.00  0.00     0.009 A 
ATOM     26  C   UNL     1      -5.212  -0.907   1.393  1.00  0.00     0.009 A 
ATOM     27  C   UNL     1      -6.466  -3.124   0.239  1.00  0.00     0.001 A 
ATOM     28  C   UNL     1      -6.532  -1.218   1.728  1.00  0.00     0.001 A 
ATOM     29  C   UNL     1      -7.160  -2.324   1.150  1.00  0.00     0.000 A 
ENDBRANCH  16  24
ENDBRANCH  14  15
ENDBRANCH   8   9
ENDBRANCH   1   8
TORSDOF 9
