REMARK SMILES CCSc1ccc2c(c1)N(CCCN1CCN(C)CC1)c1ccccc1S2
REMARK SMILES IDX 11 1 10 2 4 3 9 4 5 5 8 6 6 7 7 8 27 9 21 10 26 11 22 12
REMARK SMILES IDX 25 13 23 14 24 15 3 16 2 17 1 18 12 19 13 20 14 21 15 22
REMARK SMILES IDX 20 23 16 24 19 25 17 26 18 27
REMARK H PARENT
REMARK Flexibility Score: inf
ROOT
ATOM      1  C   UNL     1       0.334  -0.031  -1.082  1.00  0.00     0.124 C 
ENDROOT
BRANCH   1   2
ATOM      2  N   UNL     1       1.500  -0.583  -0.379  1.00  0.00    -0.340 N 
ATOM      3  C   UNL     1       3.703   2.144   0.954  1.00  0.00     0.009 A 
ATOM      4  C   UNL     1       2.818   1.450   0.119  1.00  0.00     0.042 A 
ATOM      5  C   UNL     1       4.031   1.623   2.212  1.00  0.00     0.016 A 
ATOM      6  C   UNL     1       2.261   0.231   0.536  1.00  0.00     0.056 A 
ATOM      7  C   UNL     1       3.484   0.408   2.632  1.00  0.00     0.019 A 
ATOM      8  C   UNL     1       2.595  -0.282   1.803  1.00  0.00     0.036 A 
ATOM      9  S   UNL     1       1.803  -1.787   2.380  1.00  0.00    -0.086 SA
ATOM     10  C   UNL     1       1.758  -2.003  -0.383  1.00  0.00     0.055 A 
ATOM     11  C   UNL     1       2.062  -2.652   0.828  1.00  0.00     0.036 A 
ATOM     12  C   UNL     1       1.861  -2.714  -1.590  1.00  0.00     0.027 A 
ATOM     13  C   UNL     1       2.493  -3.983   0.827  1.00  0.00     0.017 A 
ATOM     14  C   UNL     1       2.268  -4.052  -1.584  1.00  0.00     0.002 A 
ATOM     15  C   UNL     1       2.592  -4.683  -0.379  1.00  0.00     0.001 A 
BRANCH   3  16
ATOM     16  S   UNL     1       4.416   3.701   0.414  1.00  0.00    -0.126 SA
BRANCH  16  17
ATOM     17  C   UNL     1       5.957   2.965  -0.239  1.00  0.00     0.071 C 
ATOM     18  C   UNL     1       5.746   2.397  -1.636  1.00  0.00     0.016 C 
ENDBRANCH  16  17
ENDBRANCH   3  16
ENDBRANCH   1   2
BRANCH   1  19
ATOM     19  C   UNL     1      -0.944  -0.331  -0.292  1.00  0.00     0.037 C 
BRANCH  19  20
ATOM     20  C   UNL     1      -2.178   0.267  -0.979  1.00  0.00     0.086 C 
BRANCH  20  21
ATOM     21  N   UNL     1      -3.415  -0.151  -0.283  1.00  0.00    -0.301 NA
ATOM     22  C   UNL     1      -3.689   0.716   0.880  1.00  0.00     0.100 C 
ATOM     23  C   UNL     1      -4.562  -0.114  -1.209  1.00  0.00     0.100 C 
ATOM     24  C   UNL     1      -4.947   0.235   1.617  1.00  0.00     0.099 C 
ATOM     25  C   UNL     1      -5.836  -0.601  -0.502  1.00  0.00     0.099 C 
ATOM     26  N   UNL     1      -6.125   0.159   0.730  1.00  0.00    -0.304 NA
ATOM     27  C   UNL     1      -6.705   1.484   0.451  1.00  0.00     0.105 C 
ENDBRANCH  20  21
ENDBRANCH  19  20
ENDBRANCH   1  19
TORSDOF 6
