REMARK SMILES Cn1c(=O)c2c(ncn2CC(O)CO)n(C)c1=O
REMARK SMILES IDX 11 1 10 2 9 3 16 4 15 5 6 6 17 7 5 8 7 9 2 10 18 11 3 12
REMARK SMILES IDX 8 13 1 14 4 15 12 16 13 18 14 19
REMARK H PARENT 12 17 14 20
REMARK Flexibility Score: inf
ROOT
ATOM      1  C   UNL     1       2.692   0.057  -0.011  1.00  0.00     0.159 C 
ENDROOT
BRANCH   1   2
ATOM      2  C   UNL     1       1.852   0.145   1.276  1.00  0.00     0.158 C 
BRANCH   2   3
ATOM      3  N   UNL     1       0.571  -0.544   1.103  1.00  0.00    -0.322 N 
ATOM      4  C   UNL     1      -3.657  -2.103  -0.013  1.00  0.00     0.157 C 
ATOM      5  N   UNL     1      -2.704  -0.985  -0.028  1.00  0.00    -0.279 N 
ATOM      6  C   UNL     1      -1.462  -1.121   0.510  1.00  0.00     0.167 A 
ATOM      7  C   UNL     1      -3.016   0.208  -0.643  1.00  0.00     0.332 A 
ATOM      8  C   UNL     1      -0.551  -0.119   0.494  1.00  0.00     0.152 A 
ATOM      9  N   UNL     1      -0.958  -2.217   1.112  1.00  0.00    -0.218 NA
ATOM     10  N   UNL     1      -2.094   1.240  -0.696  1.00  0.00    -0.261 N 
ATOM     11  O   UNL     1      -4.157   0.359  -1.164  1.00  0.00    -0.247 OA
ATOM     12  C   UNL     1      -0.858   1.098  -0.107  1.00  0.00     0.282 A 
ATOM     13  C   UNL     1       0.294  -1.823   1.458  1.00  0.00     0.202 A 
ATOM     14  C   UNL     1      -2.463   2.520  -1.324  1.00  0.00     0.159 C 
ATOM     15  O   UNL     1      -0.022   2.042  -0.107  1.00  0.00    -0.267 OA
ENDBRANCH   2   3
ENDBRANCH   1   2
BRANCH   1  16
ATOM     16  O   UNL     1       2.938  -1.284  -0.355  1.00  0.00    -0.389 OA
ATOM     17  H   UNL     1       3.455  -1.694   0.387  1.00  0.00     0.211 HD
ENDBRANCH   1  16
BRANCH   1  18
ATOM     18  C   UNL     1       4.012   0.832   0.138  1.00  0.00     0.189 C 
BRANCH  18  19
ATOM     19  O   UNL     1       4.727   0.816  -1.068  1.00  0.00    -0.394 OA
ATOM     20  H   UNL     1       5.203  -0.054  -1.107  1.00  0.00     0.210 HD
ENDBRANCH  18  19
ENDBRANCH   1  18
TORSDOF 5
