REMARK SMILES CC/C(=C(/CC)c1ccc(O)cc1)c1ccc(O)cc1
REMARK SMILES IDX 3 1 4 2 2 3 1 4 14 5 15 6 20 7 16 8 19 9 17 10 18 11 5 13
REMARK SMILES IDX 6 14 7 15 8 16 13 17 9 18 12 19 10 20 11 21
REMARK H PARENT 18 12 11 22
REMARK Flexibility Score: inf
ROOT
ATOM      1  C   UNL     1       0.551   0.527  -0.013  1.00  0.00    -0.037 C 
ATOM      2  C   UNL     1      -0.327  -0.508   0.111  1.00  0.00    -0.037 C 
ENDROOT
BRANCH   1   3
ATOM      3  C   UNL     1       0.095   1.956  -0.240  1.00  0.00     0.033 C 
ATOM      4  C   UNL     1      -0.189   2.656   1.085  1.00  0.00     0.009 C 
ENDBRANCH   1   3
BRANCH   1   5
ATOM      5  C   UNL     1       2.006   0.331   0.180  1.00  0.00    -0.022 A 
ATOM      6  C   UNL     1       2.518   0.016   1.449  1.00  0.00     0.012 A 
ATOM      7  C   UNL     1       2.887   0.489  -0.901  1.00  0.00     0.012 A 
ATOM      8  C   UNL     1       3.893  -0.155   1.630  1.00  0.00     0.047 A 
ATOM      9  C   UNL     1       4.262   0.318  -0.717  1.00  0.00     0.047 A 
ATOM     10  C   UNL     1       4.769  -0.005   0.549  1.00  0.00     0.115 A 
BRANCH  10  11
ATOM     11  O   UNL     1       6.137  -0.179   0.744  1.00  0.00    -0.508 OA
ATOM     12  H   UNL     1       6.797  -0.077  -0.019  1.00  0.00     0.293 HD
ENDBRANCH  10  11
ENDBRANCH   1   5
BRANCH   2  13
ATOM     13  C   UNL     1       0.145  -1.925   0.408  1.00  0.00     0.033 C 
ATOM     14  C   UNL     1      -0.710  -2.992  -0.279  1.00  0.00     0.009 C 
ENDBRANCH   2  13
BRANCH   2  15
ATOM     15  C   UNL     1      -1.788  -0.266   0.090  1.00  0.00    -0.022 A 
ATOM     16  C   UNL     1      -2.460  -0.087  -1.129  1.00  0.00     0.012 A 
ATOM     17  C   UNL     1      -2.518  -0.276   1.288  1.00  0.00     0.012 A 
ATOM     18  C   UNL     1      -3.844   0.110  -1.146  1.00  0.00     0.047 A 
ATOM     19  C   UNL     1      -3.902  -0.079   1.269  1.00  0.00     0.047 A 
ATOM     20  C   UNL     1      -4.569   0.116   0.051  1.00  0.00     0.115 A 
BRANCH  20  21
ATOM     21  O   UNL     1      -5.947   0.314   0.019  1.00  0.00    -0.508 OA
ATOM     22  H   UNL     1      -6.500   0.323   0.868  1.00  0.00     0.293 HD
ENDBRANCH  20  21
ENDBRANCH   2  15
TORSDOF 6
