REMARK SMILES CCN(CC)C(=S)SSC(=S)N(CC)CC
REMARK SMILES IDX 8 1 6 2 7 3 3 4 2 5 1 6 4 7 5 8 9 9 10 10 11 11 12 12 13 13
REMARK SMILES IDX 14 14 15 15 16 16
REMARK H PARENT
REMARK Flexibility Score: inf
ROOT
ATOM      1  S   UNL     1      -0.905  -0.879  -2.204  1.00  0.00    -0.020 SA
ENDROOT
BRANCH   1   2
ATOM      2  C   UNL     1      -1.364  -1.020  -0.471  1.00  0.00     0.147 C 
ATOM      3  S   UNL     1      -0.420  -1.975   0.473  1.00  0.00    -0.052 S 
BRANCH   2   4
ATOM      4  N   UNL     1      -2.577  -0.408   0.041  1.00  0.00    -0.357 N 
BRANCH   4   5
ATOM      5  C   UNL     1      -2.892  -0.418   1.481  1.00  0.00     0.114 C 
ATOM      6  C   UNL     1      -2.063   0.625   2.222  1.00  0.00     0.027 C 
ENDBRANCH   4   5
BRANCH   4   7
ATOM      7  C   UNL     1      -3.538   0.226  -0.875  1.00  0.00     0.114 C 
ATOM      8  C   UNL     1      -4.417  -0.828  -1.541  1.00  0.00     0.027 C 
ENDBRANCH   4   7
ENDBRANCH   2   4
ENDBRANCH   1   2
BRANCH   1   9
ATOM      9  S   UNL     1       0.089   0.987  -1.925  1.00  0.00    -0.020 SA
BRANCH   9  10
ATOM     10  C   UNL     1       1.704   0.215  -1.794  1.00  0.00     0.147 C 
ATOM     11  S   UNL     1       2.534  -0.074  -3.178  1.00  0.00    -0.052 S 
BRANCH  10  12
ATOM     12  N   UNL     1       2.291  -0.060  -0.504  1.00  0.00    -0.357 N 
BRANCH  12  13
ATOM     13  C   UNL     1       2.004   0.816   0.642  1.00  0.00     0.114 C 
ATOM     14  C   UNL     1       2.612   2.200   0.433  1.00  0.00     0.027 C 
ENDBRANCH  12  13
BRANCH  12  15
ATOM     15  C   UNL     1       3.165  -1.227  -0.315  1.00  0.00     0.114 C 
ATOM     16  C   UNL     1       4.632  -0.811  -0.314  1.00  0.00     0.027 C 
ENDBRANCH  12  15
ENDBRANCH  10  12
ENDBRANCH   9  10
ENDBRANCH   1   9
TORSDOF 9
