REMARK SMILES C#C[C@]1(O)CC[C@H]2[C@@H]3CCc4cc(O)ccc4[C@H]3CC[C@@]21C
REMARK SMILES IDX 7 1 6 2 5 3 3 4 21 5 22 6 20 7 19 8 18 9 17 10 11 11 10 12
REMARK SMILES IDX 9 13 8 14 12 15 13 16 15 17 16 18 4 19 2 21 1 22 14 23
REMARK H PARENT 4 20 14 24
REMARK Flexibility Score: inf
ROOT
ATOM      1  C   UNL     1      -1.202  -0.770  -0.480  1.00  0.00     0.003 C 
ATOM      2  C   UNL     1      -1.799  -1.534  -1.657  1.00  0.00     0.008 C 
ATOM      3  C   UNL     1      -3.305  -1.212  -1.604  1.00  0.00     0.050 C 
ATOM      4  C   UNL     1      -3.504  -0.124  -0.509  1.00  0.00     0.130 C 
ATOM      5  C   UNL     1      -2.076   0.488  -0.348  1.00  0.00     0.011 C 
ATOM      6  C   UNL     1      -1.843   1.529  -1.495  1.00  0.00     0.016 C 
ATOM      7  C   UNL     1      -1.748   1.157   1.012  1.00  0.00     0.012 C 
ATOM      8  C   UNL     1      -0.237   1.473   1.147  1.00  0.00     0.009 C 
ATOM      9  C   UNL     1       0.675   0.241   0.859  1.00  0.00     0.023 C 
ATOM     10  C   UNL     1       2.174   0.543   0.914  1.00  0.00    -0.041 A 
ATOM     11  C   UNL     1       3.092  -0.252   0.171  1.00  0.00    -0.041 A 
ATOM     12  C   UNL     1       2.637  -1.302  -0.819  1.00  0.00     0.036 C 
ATOM     13  C   UNL     1       1.167  -1.698  -0.661  1.00  0.00     0.009 C 
ATOM     14  C   UNL     1       0.304  -0.441  -0.492  1.00  0.00     0.001 C 
ATOM     15  C   UNL     1       4.471  -0.014   0.283  1.00  0.00     0.050 A 
ATOM     16  C   UNL     1       4.959   0.964   1.154  1.00  0.00     0.115 A 
ATOM     17  C   UNL     1       4.069   1.712   1.920  1.00  0.00     0.046 A 
ATOM     18  C   UNL     1       2.694   1.498   1.815  1.00  0.00     0.008 A 
ENDROOT
BRANCH   4  19
ATOM     19  O   UNL     1      -4.436   0.850  -0.918  1.00  0.00    -0.377 OA
ATOM     20  H   UNL     1      -5.281   0.381  -1.148  1.00  0.00     0.212 HD
ENDBRANCH   4  19
BRANCH   4  21
ATOM     21  C   UNL     1      -3.993  -0.758   0.740  1.00  0.00    -0.071 C 
ATOM     22  C   UNL     1      -4.394  -1.275   1.753  1.00  0.00     0.007 C 
ENDBRANCH   4  21
BRANCH  16  23
ATOM     23  O   UNL     1       6.328   1.196   1.268  1.00  0.00    -0.508 OA
ATOM     24  H   UNL     1       7.002   0.668   0.726  1.00  0.00     0.293 HD
ENDBRANCH  16  23
TORSDOF 3
