REMARK SMILES COc1cc2nc(N3CCN(C(=O)c4ccco4)CC3)nc(N)c2cc1OC
REMARK SMILES IDX 8 1 9 2 10 3 11 4 19 5 20 6 12 7 13 8 7 9 3 10 26 11 4 12
REMARK SMILES IDX 25 13 5 14 24 15 6 16 22 17 21 18 2 19 1 20 27 21 28 22
REMARK SMILES IDX 23 23 14 26 15 27 18 28 16 29 17 30
REMARK H PARENT 23 24 23 25
REMARK Flexibility Score: inf
ROOT
ATOM      1  N   UNL     1       1.170  -0.832   0.176  1.00  0.00    -0.337 N 
ATOM      2  C   UNL     1       1.644   0.042  -0.909  1.00  0.00     0.141 C 
ATOM      3  C   UNL     1       3.072  -0.306  -1.338  1.00  0.00     0.141 C 
ATOM      4  N   UNL     1       3.941  -0.428  -0.161  1.00  0.00    -0.332 N 
ATOM      5  C   UNL     1       3.461  -1.124   1.041  1.00  0.00     0.141 C 
ATOM      6  C   UNL     1       2.097  -1.783   0.810  1.00  0.00     0.141 C 
ATOM      7  C   UNL     1       5.242   0.190  -0.130  1.00  0.00     0.289 C 
ATOM      8  O   UNL     1       5.649   0.724   0.937  1.00  0.00    -0.265 OA
ENDROOT
BRANCH   1   9
ATOM      9  C   UNL     1      -0.227  -0.813   0.536  1.00  0.00     0.228 A 
ATOM     10  C   UNL     1      -4.548   1.233   0.087  1.00  0.00     0.162 A 
ATOM     11  C   UNL     1      -5.105   0.295   0.967  1.00  0.00     0.161 A 
ATOM     12  C   UNL     1      -3.178   1.167  -0.224  1.00  0.00     0.079 A 
ATOM     13  C   UNL     1      -4.292  -0.708   1.531  1.00  0.00     0.064 A 
ATOM     14  C   UNL     1      -2.371   0.173   0.334  1.00  0.00     0.082 A 
ATOM     15  C   UNL     1      -2.919  -0.782   1.218  1.00  0.00     0.047 A 
ATOM     16  N   UNL     1      -1.052   0.133   0.019  1.00  0.00    -0.213 NA
ATOM     17  C   UNL     1      -2.044  -1.765   1.745  1.00  0.00     0.137 A 
ATOM     18  N   UNL     1      -0.733  -1.745   1.386  1.00  0.00    -0.195 NA
BRANCH  10  19
ATOM     19  O   UNL     1      -5.388   2.217  -0.458  1.00  0.00    -0.493 OA
ATOM     20  C   UNL     1      -4.963   3.233  -1.362  1.00  0.00     0.278 C 
ENDBRANCH  10  19
BRANCH  11  21
ATOM     21  O   UNL     1      -6.476   0.394   1.256  1.00  0.00    -0.493 OA
ATOM     22  C   UNL     1      -7.187  -0.478   2.129  1.00  0.00     0.278 C 
ENDBRANCH  11  21
BRANCH  17  23
ATOM     23  N   UNL     1      -2.478  -2.793   2.645  1.00  0.00    -0.383 N 
ATOM     24  H   UNL     1      -1.779  -3.472   3.019  1.00  0.00     0.158 HD
ATOM     25  H   UNL     1      -3.467  -2.930   2.939  1.00  0.00     0.158 HD
ENDBRANCH  17  23
ENDBRANCH   1   9
BRANCH   7  26
ATOM     26  C   UNL     1       6.130   0.208  -1.307  1.00  0.00     0.191 A 
ATOM     27  C   UNL     1       6.057  -0.615  -2.416  1.00  0.00     0.056 A 
ATOM     28  O   UNL     1       7.154   1.022  -1.426  1.00  0.00    -0.459 OA
ATOM     29  C   UNL     1       7.105  -0.240  -3.228  1.00  0.00     0.043 A 
ATOM     30  C   UNL     1       7.756   0.781  -2.568  1.00  0.00     0.196 A 
ENDBRANCH   7  26
TORSDOF 5
