REMARK SMILES Cc1cccc(Nc2ccccc2C(=O)O)c1C
REMARK SMILES IDX 8 1 9 2 10 3 11 4 12 5 13 6 7 7 6 9 1 10 2 11 17 12 3 13
REMARK SMILES IDX 18 14 4 15 5 16 14 17 15 18 16 19
REMARK H PARENT 7 8 16 20
REMARK Flexibility Score: inf
ROOT
ATOM      1  C   UNL     1      -1.496  -0.350   0.246  1.00  0.00     0.053 A 
ATOM      2  C   UNL     1      -1.194  -1.491  -0.521  1.00  0.00     0.027 A 
ATOM      3  C   UNL     1      -2.110  -1.989  -1.447  1.00  0.00     0.002 A 
ATOM      4  C   UNL     1      -3.343  -1.363  -1.615  1.00  0.00     0.001 A 
ATOM      5  C   UNL     1      -3.661  -0.230  -0.865  1.00  0.00     0.018 A 
ATOM      6  C   UNL     1      -2.746   0.299   0.064  1.00  0.00     0.083 A 
ENDROOT
BRANCH   1   7
ATOM      7  N   UNL     1      -0.567   0.099   1.251  1.00  0.00    -0.355 N 
ATOM      8  H   UNL     1      -0.951   0.353   2.189  1.00  0.00     0.167 HD
BRANCH   7   9
ATOM      9  C   UNL     1       0.856  -0.077   1.142  1.00  0.00     0.042 A 
ATOM     10  C   UNL     1       3.790   0.501  -1.277  1.00  0.00     0.044 C 
ATOM     11  C   UNL     1       2.971   0.091  -0.079  1.00  0.00    -0.046 A 
ATOM     12  C   UNL     1       1.586   0.388   0.016  1.00  0.00    -0.025 A 
ATOM     13  C   UNL     1       3.614  -0.565   0.983  1.00  0.00     0.004 A 
ATOM     14  C   UNL     1       0.894   1.179  -1.072  1.00  0.00     0.047 C 
ATOM     15  C   UNL     1       2.898  -0.956   2.112  1.00  0.00     0.002 A 
ATOM     16  C   UNL     1       1.529  -0.717   2.190  1.00  0.00     0.026 A 
ENDBRANCH   7   9
ENDBRANCH   1   7
BRANCH   6  17
ATOM     17  C   UNL     1      -3.109   1.543   0.786  1.00  0.00     0.337 C 
ATOM     18  O   UNL     1      -2.220   2.300   1.260  1.00  0.00    -0.246 OA
BRANCH  17  19
ATOM     19  O   UNL     1      -4.448   1.909   0.910  1.00  0.00    -0.478 OA
ATOM     20  H   UNL     1      -4.712   2.762   1.388  1.00  0.00     0.297 HD
ENDBRANCH  17  19
ENDBRANCH   6  17
TORSDOF 4
