REMARK SMILES CN1[C@@H]2C[C@@H](OC(=O)[C@H](CO)c3ccccc3)C[C@H]1[C@@H]1O[C@@H]12
REMARK SMILES IDX 7 1 8 2 6 3 5 4 1 5 2 6 19 7 3 8 18 9 20 10 4 11 22 12 21 13
REMARK SMILES IDX 9 14 10 15 11 16 12 18 13 19 17 20 14 21 16 22 15 23
REMARK H PARENT 11 17
REMARK Flexibility Score: inf
ROOT
ATOM      1  C   UNL     1      -1.229  -0.342  -1.673  1.00  0.00     0.316 C 
ATOM      2  O   UNL     1      -1.067  -0.382  -2.924  1.00  0.00    -0.251 OA
ENDROOT
BRANCH   1   3
ATOM      3  O   UNL     1      -0.352   0.398  -0.870  1.00  0.00    -0.462 OA
BRANCH   3   4
ATOM      4  C   UNL     1       0.839   1.023  -1.351  1.00  0.00     0.179 C 
ATOM      5  C   UNL     1       4.223   1.639  -0.780  1.00  0.00     0.106 C 
ATOM      6  N   UNL     1       3.403   0.826   0.134  1.00  0.00    -0.295 NA
ATOM      7  C   UNL     1       2.257   1.482   0.766  1.00  0.00     0.092 C 
ATOM      8  C   UNL     1       2.798  -0.389  -0.414  1.00  0.00     0.092 C 
ATOM      9  C   UNL     1       1.299   2.077  -0.301  1.00  0.00     0.067 C 
ATOM     10  C   UNL     1       1.541   0.334   1.490  1.00  0.00     0.166 C 
ATOM     11  C   UNL     1       1.920  -0.061  -1.652  1.00  0.00     0.067 C 
ATOM     12  C   UNL     1       1.891  -0.884   0.721  1.00  0.00     0.166 C 
ATOM     13  O   UNL     1       2.396  -0.657   2.021  1.00  0.00    -0.366 OA
ENDBRANCH   3   4
ENDBRANCH   1   3
BRANCH   1  14
ATOM     14  C   UNL     1      -2.362  -1.118  -1.048  1.00  0.00     0.155 C 
BRANCH  14  15
ATOM     15  C   UNL     1      -3.737  -0.639  -1.556  1.00  0.00     0.176 C 
BRANCH  15  16
ATOM     16  O   UNL     1      -3.929   0.733  -1.336  1.00  0.00    -0.395 OA
ATOM     17  H   UNL     1      -3.520   1.210  -2.104  1.00  0.00     0.210 HD
ENDBRANCH  15  16
ENDBRANCH  14  15
BRANCH  14  18
ATOM     18  C   UNL     1      -2.283  -1.127   0.473  1.00  0.00    -0.032 A 
ATOM     19  C   UNL     1      -2.045  -2.335   1.154  1.00  0.00     0.005 A 
ATOM     20  C   UNL     1      -2.410   0.061   1.222  1.00  0.00     0.005 A 
ATOM     21  C   UNL     1      -1.939  -2.355   2.547  1.00  0.00     0.000 A 
ATOM     22  C   UNL     1      -2.307   0.033   2.616  1.00  0.00     0.000 A 
ATOM     23  C   UNL     1      -2.069  -1.172   3.278  1.00  0.00     0.000 A 
ENDBRANCH  14  18
ENDBRANCH   1  14
TORSDOF 6
