REMARK SMILES CCC1(c2ccccc2)NC(=O)N(C)C1=O
REMARK SMILES IDX 3 1 10 2 11 3 12 4 13 5 14 6 15 7 16 8 2 10 1 11 4 12 5 13
REMARK SMILES IDX 9 14 6 15 8 16 7 17
REMARK H PARENT 10 9
REMARK Flexibility Score: inf
ROOT
ATOM      1  C   UNL     1      -0.388   0.431  -0.004  1.00  0.00     0.146 C 
ATOM      2  N   UNL     1      -1.307   0.139  -1.113  1.00  0.00    -0.319 N 
ATOM      3  C   UNL     1      -2.446  -0.529  -0.594  1.00  0.00     0.325 C 
ATOM      4  O   UNL     1      -3.435  -0.858  -1.301  1.00  0.00    -0.248 OA
ATOM      5  N   UNL     1      -2.369  -0.757   0.800  1.00  0.00    -0.265 N 
ATOM      6  C   UNL     1      -3.499  -1.018   1.682  1.00  0.00     0.158 C 
ATOM      7  C   UNL     1      -1.149  -0.128   1.178  1.00  0.00     0.260 C 
ATOM      8  O   UNL     1      -0.778  -0.024   2.379  1.00  0.00    -0.271 OA
ATOM      9  H   UNL     1      -1.182   0.417  -2.112  1.00  0.00     0.166 HD
ENDROOT
BRANCH   1  10
ATOM     10  C   UNL     1      -0.224   1.965   0.144  1.00  0.00     0.040 C 
ATOM     11  C   UNL     1       0.537   2.610  -1.018  1.00  0.00     0.007 C 
ENDBRANCH   1  10
BRANCH   1  12
ATOM     12  C   UNL     1       0.948  -0.301  -0.155  1.00  0.00    -0.013 A 
ATOM     13  C   UNL     1       1.210  -1.161  -1.246  1.00  0.00     0.007 A 
ATOM     14  C   UNL     1       1.953  -0.140   0.823  1.00  0.00     0.007 A 
ATOM     15  C   UNL     1       2.438  -1.819  -1.356  1.00  0.00     0.000 A 
ATOM     16  C   UNL     1       3.178  -0.801   0.706  1.00  0.00     0.000 A 
ATOM     17  C   UNL     1       3.422  -1.638  -0.383  1.00  0.00     0.000 A 
ENDBRANCH   1  12
TORSDOF 2
