REMARK SMILES CNCCC=C1c2ccccc2CCc2ccccc21
REMARK SMILES IDX 4 1 3 2 2 3 1 4 5 6 6 7 7 8 8 9 12 10 9 11 11 12 10 13 13 14
REMARK SMILES IDX 20 16 15 17 19 18 16 19 18 20 17 21 14 22
REMARK H PARENT 2 5
REMARK Flexibility Score: 90.00
ROOT
ATOM      1  C   UNL     1       1.866   1.287  -0.632  1.00  0.00     0.043 C 
ENDROOT
BRANCH   1   2
ATOM      2  C   UNL     1       3.216   0.879  -1.230  1.00  0.00     0.085 C 
BRANCH   2   3
ATOM      3  N   UNL     1       3.612  -0.450  -0.748  1.00  0.00    -0.319 NA
ATOM      4  C   UNL     1       4.848  -0.880  -1.402  1.00  0.00     0.101 C 
ATOM      5  H   UNL     1       3.808  -0.381   0.278  1.00  0.00     0.122 HD
ENDBRANCH   2   3
ENDBRANCH   1   2
BRANCH   1   6
ATOM      6  C   UNL     1       0.759   0.359  -1.068  1.00  0.00    -0.016 C 
ATOM      7  C   UNL     1      -0.446   0.292  -0.466  1.00  0.00    -0.015 C 
BRANCH   7   8
ATOM      8  C   UNL     1      -1.358  -0.797  -0.847  1.00  0.00    -0.015 A 
ATOM      9  C   UNL     1      -1.963  -0.812  -2.113  1.00  0.00     0.009 A 
ATOM     10  C   UNL     1      -1.600  -1.839   0.060  1.00  0.00    -0.040 A 
ATOM     11  C   UNL     1      -2.830  -1.852  -2.461  1.00  0.00     0.001 A 
ATOM     12  C   UNL     1      -2.481  -2.875  -0.293  1.00  0.00     0.004 A 
ATOM     13  C   UNL     1      -3.091  -2.880  -1.551  1.00  0.00     0.000 A 
BRANCH  10  14
ATOM     14  C   UNL     1      -0.928  -1.819   1.406  1.00  0.00     0.041 CG0
ATOM     15  G   UNL     1      -1.541  -0.741   2.301  1.00  0.00     0.000 G0
ENDBRANCH  10  14
ENDBRANCH   7   8
BRANCH   7  16
ATOM     16  C   UNL     1      -0.844   1.192   0.650  1.00  0.00    -0.015 A 
ATOM     17  C   UNL     1      -1.303   0.718   1.919  1.00  0.00    -0.040 A 
ATOM     18  C   UNL     1      -0.816   2.580   0.410  1.00  0.00     0.009 A 
ATOM     19  C   UNL     1      -1.654   1.663   2.903  1.00  0.00     0.004 A 
ATOM     20  C   UNL     1      -1.164   3.489   1.406  1.00  0.00     0.001 A 
ATOM     21  C   UNL     1      -1.572   3.032   2.654  1.00  0.00     0.000 A 
BRANCH  17  22
ATOM     22  C   UNL     1      -1.541  -0.741   2.301  1.00  0.00     0.041 CG0
ATOM     23  G   UNL     1      -0.928  -1.819   1.406  1.00  0.00     0.000 G0
ENDBRANCH  17  22
ENDBRANCH   7  16
ENDBRANCH   1   6
TORSDOF 3
