REMARK SMILES NC(N)=Nc1nc(CSCCC(N)=NS(N)(=O)=O)cs1
REMARK SMILES IDX 10 1 9 2 8 3 7 4 5 5 6 6 20 7 19 8 4 9 1 10 2 11 3 14 11 17
REMARK SMILES IDX 12 18 13 19 14 20 15 23 17 24 18 25 16 26
REMARK H PARENT 1 12 1 13 3 15 3 16 13 21 13 22 16 27 16 28
REMARK Flexibility Score: inf
ROOT
ATOM      1  C   UNL     1      -1.458  -0.309   0.242  1.00  0.00     0.078 C 
ENDROOT
BRANCH   1   2
ATOM      2  S   UNL     1      -0.817   0.431   1.787  1.00  0.00    -0.155 SA
BRANCH   2   3
ATOM      3  C   UNL     1       0.580  -0.724   2.025  1.00  0.00     0.126 C 
BRANCH   3   4
ATOM      4  C   UNL     1       1.712  -0.373   1.112  1.00  0.00     0.064 A 
ATOM      5  C   UNL     1       3.366   0.915   0.309  1.00  0.00     0.212 A 
ATOM      6  N   UNL     1       2.410   0.787   1.252  1.00  0.00    -0.222 NA
ATOM      7  S   UNL     1       3.429  -0.441  -0.692  1.00  0.00    -0.103 S 
ATOM      8  C   UNL     1       2.135  -1.197   0.071  1.00  0.00     0.093 A 
BRANCH   5   9
ATOM      9  N   UNL     1       4.322   1.983   0.331  1.00  0.00    -0.186 NA
ATOM     10  N   UNL     1       5.939   3.501  -0.450  1.00  0.00    -0.370 N 
ATOM     11  C   UNL     1       4.935   2.515  -0.688  1.00  0.00     0.193 C 
ATOM     12  H   UNL     1       6.197   3.771   0.525  1.00  0.00     0.159 HD
ATOM     13  H   UNL     1       6.427   3.965  -1.248  1.00  0.00     0.159 HD
ATOM     14  N   UNL     1       4.584   2.191  -2.039  1.00  0.00    -0.370 N 
ATOM     15  H   UNL     1       5.170   2.545  -2.826  1.00  0.00     0.159 HD
ATOM     16  H   UNL     1       3.669   1.752  -2.280  1.00  0.00     0.159 HD
ENDBRANCH   5   9
ENDBRANCH   3   4
ENDBRANCH   2   3
ENDBRANCH   1   2
BRANCH   1  17
ATOM     17  C   UNL     1      -2.441  -1.439   0.552  1.00  0.00     0.086 C 
BRANCH  17  18
ATOM     18  C   UNL     1      -3.004  -2.015  -0.726  1.00  0.00     0.115 C 
ATOM     19  N   UNL     1      -2.184  -2.898  -1.493  1.00  0.00    -0.386 N 
ATOM     20  N   UNL     1      -4.186  -1.711  -1.182  1.00  0.00    -0.137 NA
ATOM     21  H   UNL     1      -1.223  -3.150  -1.170  1.00  0.00     0.157 HD
ATOM     22  H   UNL     1      -2.533  -3.301  -2.391  1.00  0.00     0.157 HD
BRANCH  20  23
ATOM     23  S   UNL     1      -5.348  -0.658  -0.435  1.00  0.00     0.318 S 
ATOM     24  O   UNL     1      -6.535  -0.525  -1.346  1.00  0.00    -0.187 OA
ATOM     25  O   UNL     1      -5.801  -1.246   0.872  1.00  0.00    -0.187 OA
BRANCH  23  26
ATOM     26  N   UNL     1      -4.661   0.906  -0.174  1.00  0.00    -0.210 NA
ATOM     27  H   UNL     1      -4.403   1.286  -1.112  1.00  0.00     0.139 HD
ATOM     28  H   UNL     1      -5.421   1.516   0.202  1.00  0.00     0.139 HD
ENDBRANCH  23  26
ENDBRANCH  20  23
ENDBRANCH  17  18
ENDBRANCH   1  17
TORSDOF 8
