REMARK SMILES CC(C)NCC(O)COc1ccc(COCCOC(C)C)cc1
REMARK SMILES IDX 10 1 11 2 12 3 13 4 22 5 23 6 9 7 8 8 6 9 5 10 4 11 2 13
REMARK SMILES IDX 1 14 3 15 7 16 14 18 15 19 16 20 17 21 18 22 19 23 20 24
REMARK SMILES IDX 21 25
REMARK H PARENT 4 12 7 17
REMARK Flexibility Score: inf
ROOT
ATOM      1  C   UNL     1      -1.076   1.514  -1.498  1.00  0.00     0.119 A 
ATOM      2  C   UNL     1      -0.548   0.437  -0.759  1.00  0.00     0.047 A 
ATOM      3  C   UNL     1       0.689  -0.115  -1.101  1.00  0.00     0.010 A 
ATOM      4  C   UNL     1       1.419   0.397  -2.185  1.00  0.00    -0.022 A 
ATOM      5  C   UNL     1       0.897   1.474  -2.917  1.00  0.00     0.010 A 
ATOM      6  C   UNL     1      -0.340   2.027  -2.573  1.00  0.00     0.047 A 
ENDROOT
BRANCH   1   7
ATOM      7  O   UNL     1      -2.312   2.110  -1.200  1.00  0.00    -0.491 OA
BRANCH   7   8
ATOM      8  C   UNL     1      -3.244   1.647  -0.221  1.00  0.00     0.262 C 
BRANCH   8   9
ATOM      9  C   UNL     1      -3.993   0.404  -0.728  1.00  0.00     0.165 C 
BRANCH   9  10
ATOM     10  C   UNL     1      -4.933  -0.157   0.353  1.00  0.00     0.116 C 
BRANCH  10  11
ATOM     11  N   UNL     1      -5.977   0.825   0.695  1.00  0.00    -0.312 NA
ATOM     12  H   UNL     1      -6.686   0.830  -0.076  1.00  0.00     0.123 HD
BRANCH  11  13
ATOM     13  C   UNL     1      -6.680   0.555   1.966  1.00  0.00     0.047 C 
ATOM     14  C   UNL     1      -7.245  -0.872   2.052  1.00  0.00     0.024 C 
ATOM     15  C   UNL     1      -5.797   0.889   3.176  1.00  0.00     0.024 C 
ENDBRANCH  11  13
ENDBRANCH  10  11
ENDBRANCH   9  10
BRANCH   9  16
ATOM     16  O   UNL     1      -4.718   0.738  -1.883  1.00  0.00    -0.388 OA
ATOM     17  H   UNL     1      -4.961  -0.117  -2.327  1.00  0.00     0.211 HD
ENDBRANCH   9  16
ENDBRANCH   8   9
ENDBRANCH   7   8
ENDBRANCH   1   7
BRANCH   4  18
ATOM     18  C   UNL     1       2.759  -0.183  -2.551  1.00  0.00     0.195 C 
BRANCH  18  19
ATOM     19  O   UNL     1       3.784   0.771  -2.349  1.00  0.00    -0.374 OA
BRANCH  19  20
ATOM     20  C   UNL     1       4.246   0.754  -1.010  1.00  0.00     0.189 C 
BRANCH  20  21
ATOM     21  C   UNL     1       5.486  -0.128  -0.887  1.00  0.00     0.189 C 
BRANCH  21  22
ATOM     22  O   UNL     1       5.978  -0.050   0.435  1.00  0.00    -0.376 OA
BRANCH  22  23
ATOM     23  C   UNL     1       7.054  -0.953   0.625  1.00  0.00     0.112 C 
ATOM     24  C   UNL     1       6.535  -2.239   1.275  1.00  0.00     0.038 C 
ATOM     25  C   UNL     1       8.090  -0.288   1.531  1.00  0.00     0.038 C 
ENDBRANCH  22  23
ENDBRANCH  21  22
ENDBRANCH  20  21
ENDBRANCH  19  20
ENDBRANCH  18  19
ENDBRANCH   4  18
TORSDOF 13
