REMARK SMILES CNS(=O)(=O)Cc1ccc2[nH]cc(CCN(C)C)c2c1
REMARK SMILES IDX 7 1 8 2 9 3 10 4 11 5 12 6 13 7 19 8 20 9 6 11 3 12 4 13
REMARK SMILES IDX 5 14 2 15 1 16 14 18 15 19 16 20 17 21 18 22
REMARK H PARENT 11 10 2 17
REMARK Flexibility Score: inf
ROOT
ATOM      1  C   UNL     1       1.747   0.779  -0.455  1.00  0.00    -0.031 A 
ATOM      2  C   UNL     1       2.083   2.130  -0.726  1.00  0.00     0.007 A 
ATOM      3  C   UNL     1       1.201   3.171  -0.384  1.00  0.00     0.027 A 
ATOM      4  C   UNL     1       0.002   2.832   0.238  1.00  0.00     0.046 A 
ATOM      5  N   UNL     1      -0.977   3.666   0.631  1.00  0.00    -0.361 N 
ATOM      6  C   UNL     1      -1.942   2.885   1.168  1.00  0.00     0.087 A 
ATOM      7  C   UNL     1      -1.561   1.547   1.124  1.00  0.00    -0.021 A 
ATOM      8  C   UNL     1      -0.322   1.530   0.516  1.00  0.00     0.003 A 
ATOM      9  C   UNL     1       0.525   0.474   0.184  1.00  0.00     0.015 A 
ATOM     10  H   UNL     1      -0.997   4.706   0.533  1.00  0.00     0.166 HD
ENDROOT
BRANCH   1  11
ATOM     11  C   UNL     1       2.712  -0.321  -0.798  1.00  0.00     0.189 C 
BRANCH  11  12
ATOM     12  S   UNL     1       3.845  -0.599   0.556  1.00  0.00     0.215 S 
ATOM     13  O   UNL     1       4.725   0.608   0.734  1.00  0.00    -0.212 OA
ATOM     14  O   UNL     1       3.061  -0.820   1.819  1.00  0.00    -0.212 OA
BRANCH  12  15
ATOM     15  N   UNL     1       4.824  -2.004   0.257  1.00  0.00    -0.218 NA
ATOM     16  C   UNL     1       5.694  -1.774  -0.894  1.00  0.00     0.120 C 
ATOM     17  H   UNL     1       4.174  -2.788   0.016  1.00  0.00     0.140 HD
ENDBRANCH  12  15
ENDBRANCH  11  12
ENDBRANCH   1  11
BRANCH   7  18
ATOM     18  C   UNL     1      -2.380   0.368   1.558  1.00  0.00     0.053 C 
BRANCH  18  19
ATOM     19  C   UNL     1      -3.112  -0.250   0.361  1.00  0.00     0.088 C 
BRANCH  19  20
ATOM     20  N   UNL     1      -3.975  -1.369   0.800  1.00  0.00    -0.309 NA
ATOM     21  C   UNL     1      -3.205  -2.621   0.902  1.00  0.00     0.104 C 
ATOM     22  C   UNL     1      -5.087  -1.556  -0.145  1.00  0.00     0.104 C 
ENDBRANCH  19  20
ENDBRANCH  18  19
ENDBRANCH   7  18
TORSDOF 6
