REMARK SMILES CC(=O)O[C@H]1C[C@H](O[C@H]2[C@@H](O)C[C@H](O[C@H]3[C@@H](O)C[C@H](O[C@H]4CC[C@@]5(C)[C@H](CC[C@@H]6[C@@H]5CC[C@]5(C)[C@@H](C7=CC(=O)OC7)CC[C@]65O)C4)O[C@@H]3C)O[C@@H]2C)O[C@H](C)[C@H]1O
REMARK SMILES IDX 13 1 12 2 10 3 9 4 51 5 52 6 50 7 14 8 15 9 19 10 18 11
REMARK SMILES IDX 47 12 16 13 48 14 49 15 20 16 21 17 35 18 42 19 33 20 43 21
REMARK SMILES IDX 44 22 32 23 34 24 29 25 31 26 28 27 30 28 27 29 24 30 26 31
REMARK SMILES IDX 23 32 25 33 46 34 22 35 36 36 37 37 41 38 38 39 40 40 39 41
REMARK SMILES IDX 45 42 17 44 11 46 8 48 7 49 6 50 53 51 5 52 54 53 56 54
REMARK SMILES IDX 55 55 4 56 2 57 1 58 3 59 57 60
REMARK H PARENT 45 43 17 45 11 47 57 61
REMARK Flexibility Score: inf
ROOT
ATOM      1  C   UNL     1       5.108  -0.159  -0.037  1.00  0.00     0.253 C 
ATOM      2  C   UNL     1       5.896  -1.355  -0.590  1.00  0.00     0.096 C 
ATOM      3  C   UNL     1       6.445  -1.048  -1.986  1.00  0.00     0.151 C 
ATOM      4  C   UNL     1       7.240   0.266  -1.960  1.00  0.00     0.179 C 
ATOM      5  C   UNL     1       6.413   1.394  -1.300  1.00  0.00     0.150 C 
ATOM      6  C   UNL     1       5.356   2.011  -2.235  1.00  0.00     0.041 C 
ATOM      7  O   UNL     1       5.881   1.032  -0.029  1.00  0.00    -0.347 OA
ENDROOT
BRANCH   1   8
ATOM      8  O   UNL     1       3.915   0.033  -0.784  1.00  0.00    -0.344 OA
BRANCH   8   9
ATOM      9  C   UNL     1       2.756  -0.390  -0.084  1.00  0.00     0.179 C 
ATOM     10  C   UNL     1      -0.074   0.026   0.280  1.00  0.00     0.253 C 
ATOM     11  C   UNL     1       0.883   0.386   1.420  1.00  0.00     0.096 C 
ATOM     12  O   UNL     1       0.442  -1.075  -0.449  1.00  0.00    -0.347 OA
ATOM     13  C   UNL     1       2.272   0.731   0.863  1.00  0.00     0.151 C 
ATOM     14  C   UNL     1       1.646  -0.717  -1.111  1.00  0.00     0.150 C 
ATOM     15  C   UNL     1       2.066  -1.884  -2.007  1.00  0.00     0.041 C 
BRANCH  10  16
ATOM     16  O   UNL     1      -1.315  -0.340   0.850  1.00  0.00    -0.349 OA
BRANCH  16  17
ATOM     17  C   UNL     1      -2.353  -0.346  -0.121  1.00  0.00     0.121 C 
ATOM     18  C   UNL     1      -9.983  -0.312  -0.969  1.00  0.00     0.028 C 
ATOM     19  C   UNL     1      -9.355   0.901  -1.681  1.00  0.00     0.012 C 
ATOM     20  C   UNL     1      -9.083  -0.597   0.280  1.00  0.00     0.003 C 
ATOM     21  C   UNL     1      -8.245   1.443  -0.780  1.00  0.00     0.037 C 
ATOM     22  C   UNL     1      -8.437   0.791   0.605  1.00  0.00     0.074 C 
ATOM     23  C   UNL     1      -8.008  -1.648  -0.145  1.00  0.00     0.010 C 
ATOM     24  C   UNL     1      -9.880  -1.182   1.482  1.00  0.00     0.015 C 
ATOM     25  C   UNL     1      -7.110   0.680   1.444  1.00  0.00     0.025 C 
ATOM     26  C   UNL     1      -6.816  -1.748   0.809  1.00  0.00     0.005 C 
ATOM     27  C   UNL     1      -6.431   2.055   1.743  1.00  0.00     0.007 C 
ATOM     28  C   UNL     1      -6.110  -0.384   0.907  1.00  0.00     0.001 C 
ATOM     29  C   UNL     1      -4.964   2.218   1.293  1.00  0.00     0.005 C 
ATOM     30  C   UNL     1      -4.769  -0.372   1.736  1.00  0.00    -0.026 C 
ATOM     31  C   UNL     1      -4.022   0.968   1.380  1.00  0.00    -0.002 C 
ATOM     32  C   UNL     1      -3.844  -1.602   1.447  1.00  0.00     0.010 C 
ATOM     33  C   UNL     1      -5.038  -0.433   3.271  1.00  0.00     0.012 C 
ATOM     34  C   UNL     1      -3.224   0.900   0.039  1.00  0.00     0.036 C 
ATOM     35  C   UNL     1      -3.217  -1.593   0.057  1.00  0.00     0.033 C 
BRANCH  18  36
ATOM     36  C   UNL     1     -11.470  -0.119  -0.689  1.00  0.00    -0.022 C 
ATOM     37  C   UNL     1     -12.363  -1.094  -0.850  1.00  0.00     0.096 C 
ATOM     38  C   UNL     1     -12.150   1.130  -0.160  1.00  0.00     0.265 C 
ATOM     39  C   UNL     1     -13.646  -0.559  -0.473  1.00  0.00     0.331 C 
ATOM     40  O   UNL     1     -13.518   0.753  -0.067  1.00  0.00    -0.458 OA
ATOM     41  O   UNL     1     -14.737  -1.188  -0.501  1.00  0.00    -0.247 OA
ENDBRANCH  18  36
BRANCH  22  42
ATOM     42  O   UNL     1      -9.381   1.540   1.346  1.00  0.00    -0.389 OA
ATOM     43  H   UNL     1      -9.116   2.491   1.371  1.00  0.00     0.211 HD
ENDBRANCH  22  42
ENDBRANCH  16  17
ENDBRANCH  10  16
BRANCH  13  44
ATOM     44  O   UNL     1       2.234   1.955   0.173  1.00  0.00    -0.390 OA
ATOM     45  H   UNL     1       2.089   2.666   0.849  1.00  0.00     0.211 HD
ENDBRANCH  13  44
ENDBRANCH   8   9
ENDBRANCH   1   8
BRANCH   3  46
ATOM     46  O   UNL     1       7.274  -2.093  -2.422  1.00  0.00    -0.390 OA
ATOM     47  H   UNL     1       6.679  -2.860  -2.641  1.00  0.00     0.211 HD
ENDBRANCH   3  46
BRANCH   4  48
ATOM     48  O   UNL     1       8.432   0.089  -1.201  1.00  0.00    -0.344 OA
BRANCH  48  49
ATOM     49  C   UNL     1       9.624   0.113  -1.979  1.00  0.00     0.254 C 
ATOM     50  C   UNL     1      10.599   1.158  -1.413  1.00  0.00     0.110 C 
ATOM     51  O   UNL     1      10.198  -1.186  -2.067  1.00  0.00    -0.347 OA
ATOM     52  C   UNL     1      11.178   0.717  -0.072  1.00  0.00     0.212 C 
ATOM     53  C   UNL     1      10.751  -1.677  -0.848  1.00  0.00     0.150 C 
ATOM     54  C   UNL     1      11.760  -0.703  -0.188  1.00  0.00     0.184 C 
ATOM     55  C   UNL     1       9.679  -2.178   0.132  1.00  0.00     0.042 C 
BRANCH  52  56
ATOM     56  O   UNL     1      12.188   1.644   0.329  1.00  0.00    -0.459 OA
BRANCH  56  57
ATOM     57  C   UNL     1      12.700   1.713   1.631  1.00  0.00     0.302 C 
ATOM     58  C   UNL     1      13.801   2.671   1.936  1.00  0.00     0.139 C 
ATOM     59  O   UNL     1      12.211   1.009   2.556  1.00  0.00    -0.253 OA
ENDBRANCH  56  57
ENDBRANCH  52  56
BRANCH  54  60
ATOM     60  O   UNL     1      12.983  -0.693  -0.888  1.00  0.00    -0.387 OA
ATOM     61  H   UNL     1      12.791  -0.509  -1.845  1.00  0.00     0.211 HD
ENDBRANCH  54  60
ENDBRANCH  48  49
ENDBRANCH   4  48
TORSDOF 13
