REMARK SMILES C[C@]12C=CC(=O)C=C1CC[C@H]1[C@@H]3C[C@@H](O)[C@](O)(C(=O)CO)[C@@]3(C)C[C@H](O)[C@@]12F
REMARK SMILES IDX 18 1 19 2 16 3 12 4 13 5 22 6 11 7 14 8 23 9 24 10 27 11
REMARK SMILES IDX 10 12 25 13 28 14 2 15 9 16 8 17 3 18 1 19 7 20 4 21 5 22
REMARK SMILES IDX 6 23 15 24 17 26 26 28 20 30 21 31
REMARK H PARENT 15 25 17 27 26 29 21 32
REMARK Flexibility Score: inf
ROOT
ATOM      1  C   UNL     1      -3.968  -1.192  -0.811  1.00  0.00     0.192 C 
ATOM      2  O   UNL     1      -3.698  -2.227  -1.404  1.00  0.00    -0.294 OA
ENDROOT
BRANCH   1   3
ATOM      3  C   UNL     1      -2.903  -0.085  -0.741  1.00  0.00     0.156 C 
ATOM      4  C   UNL     1      -0.882   0.803   0.127  1.00  0.00     0.007 C 
ATOM      5  C   UNL     1      -1.939   1.594   0.877  1.00  0.00     0.040 C 
ATOM      6  C   UNL     1      -1.530  -0.566  -0.155  1.00  0.00     0.012 C 
ATOM      7  C   UNL     1       0.552   0.628   0.648  1.00  0.00     0.035 C 
ATOM      8  C   UNL     1      -3.265   1.105   0.231  1.00  0.00     0.154 C 
ATOM      9  C   UNL     1      -1.795  -1.404   1.151  1.00  0.00     0.015 C 
ATOM     10  C   UNL     1      -0.583  -1.422  -1.070  1.00  0.00     0.045 C 
ATOM     11  C   UNL     1       1.467   0.254  -0.570  1.00  0.00     0.152 C 
ATOM     12  C   UNL     1       1.111   1.842   1.395  1.00  0.00     0.012 C 
ATOM     13  C   UNL     1       0.702  -0.712  -1.595  1.00  0.00     0.154 C 
ATOM     14  F   UNL     1       1.679   1.431  -1.286  1.00  0.00    -0.239 F 
ATOM     15  C   UNL     1       2.903  -0.173  -0.055  1.00  0.00     0.044 C 
ATOM     16  C   UNL     1       2.469   1.478   2.000  1.00  0.00     0.032 C 
ATOM     17  C   UNL     1       3.410   0.869   0.979  1.00  0.00    -0.053 C 
ATOM     18  C   UNL     1       3.890  -0.251  -1.231  1.00  0.00    -0.009 C 
ATOM     19  C   UNL     1       2.887  -1.555   0.642  1.00  0.00     0.024 C 
ATOM     20  C   UNL     1       4.727   1.100   1.131  1.00  0.00     0.052 C 
ATOM     21  C   UNL     1       5.193   0.005  -1.089  1.00  0.00     0.048 C 
ATOM     22  C   UNL     1       5.690   0.593   0.153  1.00  0.00     0.178 C 
ATOM     23  O   UNL     1       6.927   0.726   0.346  1.00  0.00    -0.290 OA
BRANCH   8  24
ATOM     24  O   UNL     1      -3.946   2.146  -0.428  1.00  0.00    -0.390 OA
ATOM     25  H   UNL     1      -3.301   2.609  -1.025  1.00  0.00     0.211 HD
ENDBRANCH   8  24
BRANCH   3  26
ATOM     26  O   UNL     1      -2.721   0.446  -2.040  1.00  0.00    -0.379 OA
ATOM     27  H   UNL     1      -2.573  -0.297  -2.680  1.00  0.00     0.212 HD
ENDBRANCH   3  26
BRANCH  13  28
ATOM     28  O   UNL     1       1.549  -1.684  -2.149  1.00  0.00    -0.390 OA
ATOM     29  H   UNL     1       1.135  -1.991  -2.998  1.00  0.00     0.211 HD
ENDBRANCH  13  28
ENDBRANCH   1   3
BRANCH   1  30
ATOM     30  C   UNL     1      -5.348  -1.066  -0.212  1.00  0.00     0.234 C 
BRANCH  30  31
ATOM     31  O   UNL     1      -6.005   0.065  -0.716  1.00  0.00    -0.388 OA
ATOM     32  H   UNL     1      -6.240  -0.140  -1.658  1.00  0.00     0.211 HD
ENDBRANCH  30  31
ENDBRANCH   1  30
TORSDOF 6
