REMARK SMILES CC1Cc2ccccc2N1NC(=O)c1ccc(Cl)c(S(N)(=O)=O)c1
REMARK SMILES IDX 14 1 24 2 19 3 17 4 18 5 16 6 15 7 12 8 11 9 13 11 10 12
REMARK SMILES IDX 1 13 2 14 3 15 4 16 9 17 5 18 8 19 6 20 7 21 20 22 22 23
REMARK SMILES IDX 23 24 21 25
REMARK H PARENT 11 10 21 26 21 27
REMARK Flexibility Score: inf
ROOT
ATOM      1  C   UNL     1       1.935  -0.424  -0.008  1.00  0.00     0.043 A 
ATOM      2  C   UNL     1       3.187   0.215  -0.075  1.00  0.00     0.037 A 
ATOM      3  C   UNL     1       4.379  -0.527  -0.037  1.00  0.00     0.101 A 
ATOM      4  C   UNL     1       4.315  -1.931   0.071  1.00  0.00     0.061 A 
ATOM      5  Cl  UNL     1       5.764  -2.928   0.142  1.00  0.00    -0.083 Cl
ATOM      6  C   UNL     1       3.072  -2.568   0.127  1.00  0.00     0.023 A 
ATOM      7  C   UNL     1       1.891  -1.825   0.084  1.00  0.00     0.015 A 
ENDROOT
BRANCH   1   8
ATOM      8  C   UNL     1       0.687   0.374  -0.060  1.00  0.00     0.269 C 
ATOM      9  N   UNL     1      -0.549  -0.157   0.442  1.00  0.00    -0.263 N 
ATOM     10  H   UNL     1      -0.512  -0.912   1.161  1.00  0.00     0.191 HD
ATOM     11  O   UNL     1       0.718   1.545  -0.525  1.00  0.00    -0.267 OA
BRANCH   9  12
ATOM     12  N   UNL     1      -1.801   0.382   0.083  1.00  0.00    -0.282 N 
ATOM     13  C   UNL     1      -1.817  -0.124  -2.336  1.00  0.00     0.033 C 
ATOM     14  C   UNL     1      -2.159   0.898  -1.246  1.00  0.00     0.107 C 
ATOM     15  C   UNL     1      -3.692   1.169  -1.188  1.00  0.00     0.064 C 
ATOM     16  C   UNL     1      -4.079   0.682   0.166  1.00  0.00    -0.021 A 
ATOM     17  C   UNL     1      -2.981   0.242   0.854  1.00  0.00     0.061 A 
ATOM     18  C   UNL     1      -5.351   0.656   0.739  1.00  0.00     0.006 A 
ATOM     19  C   UNL     1      -3.086  -0.241   2.162  1.00  0.00     0.028 A 
ATOM     20  C   UNL     1      -5.488   0.167   2.048  1.00  0.00     0.000 A 
ATOM     21  C   UNL     1      -4.357  -0.280   2.759  1.00  0.00     0.002 A 
ENDBRANCH   9  12
ENDBRANCH   1   8
BRANCH   3  22
ATOM     22  S   UNL     1       5.935   0.311  -0.115  1.00  0.00     0.239 S 
ATOM     23  O   UNL     1       6.682   0.088   1.170  1.00  0.00    -0.207 OA
ATOM     24  O   UNL     1       6.738  -0.229  -1.265  1.00  0.00    -0.207 OA
BRANCH  22  25
ATOM     25  N   UNL     1       5.709   2.011  -0.343  1.00  0.00    -0.225 NA
ATOM     26  H   UNL     1       6.656   2.451  -0.319  1.00  0.00     0.137 HD
ATOM     27  H   UNL     1       5.342   2.144  -1.312  1.00  0.00     0.137 HD
ENDBRANCH  22  25
ENDBRANCH   3  22
TORSDOF 4
