REMARK SMILES Nc1nc2ccc(OC(F)(F)F)cc2s1
REMARK SMILES IDX 2 1 3 2 4 3 14 4 15 5 13 6 7 7 6 8 5 9 1 10 8 13 9 14 10 15
REMARK SMILES IDX 11 16 12 17
REMARK H PARENT 1 11 1 12
REMARK Flexibility Score: inf
ROOT
ATOM      1  C   UNL     1       3.206  -0.002  -0.552  1.00  0.00     0.181 A 
ATOM      2  N   UNL     1       2.537  -0.354   0.572  1.00  0.00    -0.220 NA
ATOM      3  C   UNL     1       1.200  -0.210   0.394  1.00  0.00     0.084 A 
ATOM      4  C   UNL     1       0.815   0.249  -0.856  1.00  0.00     0.060 A 
ATOM      5  S   UNL     1       2.181   0.496  -1.803  1.00  0.00    -0.097 S 
ATOM      6  C   UNL     1      -0.520   0.447  -1.192  1.00  0.00     0.068 A 
ATOM      7  C   UNL     1      -1.507   0.171  -0.228  1.00  0.00     0.131 A 
ATOM      8  C   UNL     1      -1.117  -0.300   1.054  1.00  0.00     0.049 A 
ATOM      9  C   UNL     1       0.241  -0.491   1.365  1.00  0.00     0.034 A 
ENDROOT
BRANCH   1  10
ATOM     10  N   UNL     1       4.626  -0.053  -0.656  1.00  0.00    -0.375 N 
ATOM     11  H   UNL     1       5.203  -0.370   0.154  1.00  0.00     0.159 HD
ATOM     12  H   UNL     1       5.100   0.228  -1.543  1.00  0.00     0.159 HD
ENDBRANCH   1  10
BRANCH   7  13
ATOM     13  O   UNL     1      -2.850   0.376  -0.582  1.00  0.00    -0.406 OA
BRANCH  13  14
ATOM     14  C   UNL     1      -3.970   0.147   0.269  1.00  0.00     0.573 C 
ATOM     15  F   UNL     1      -5.127   0.458  -0.419  1.00  0.00    -0.132 F 
ATOM     16  F   UNL     1      -3.889   0.953   1.391  1.00  0.00    -0.132 F 
ATOM     17  F   UNL     1      -4.019  -1.183   0.646  1.00  0.00    -0.132 F 
ENDBRANCH  13  14
ENDBRANCH   7  13
TORSDOF 3
