REMARK SMILES CCOC(=O)C1=C(COCCN)NC(C)=C(C(=O)OC)C1c1ccccc1Cl
REMARK SMILES IDX 8 1 7 2 6 3 21 4 13 5 16 6 14 7 15 9 4 10 5 11 3 12 2 13
REMARK SMILES IDX 1 14 22 15 23 16 27 17 24 18 26 19 28 20 25 21 17 22 18 23
REMARK SMILES IDX 19 24 20 25 9 26 10 27 11 28 12 29
REMARK H PARENT 13 8 12 30 12 31
REMARK Flexibility Score: inf
ROOT
ATOM      1  C   UNL     1       2.374  -0.286  -0.759  1.00  0.00     0.214 C 
ENDROOT
BRANCH   1   2
ATOM      2  C   UNL     1       0.951  -0.519  -0.297  1.00  0.00     0.053 C 
ATOM      3  C   UNL     1       0.240   0.425   0.361  1.00  0.00     0.071 C 
ATOM      4  C   UNL     1      -1.196   0.156   0.779  1.00  0.00     0.099 C 
ATOM      5  N   UNL     1       0.327  -1.776  -0.602  1.00  0.00    -0.360 N 
ATOM      6  C   UNL     1      -1.591  -1.315   0.780  1.00  0.00     0.068 C 
ATOM      7  C   UNL     1      -0.890  -2.198   0.032  1.00  0.00     0.023 C 
ATOM      8  H   UNL     1       0.809  -2.436  -1.252  1.00  0.00     0.166 HD
ATOM      9  C   UNL     1      -1.325  -3.628  -0.161  1.00  0.00     0.065 C 
BRANCH   3  10
ATOM     10  C   UNL     1       0.765   1.791   0.600  1.00  0.00     0.336 C 
ATOM     11  O   UNL     1       0.513   2.372   1.691  1.00  0.00    -0.246 OA
BRANCH  10  12
ATOM     12  O   UNL     1       1.483   2.452  -0.403  1.00  0.00    -0.463 OA
BRANCH  12  13
ATOM     13  C   UNL     1       1.895   3.813  -0.305  1.00  0.00     0.230 C 
ATOM     14  C   UNL     1       0.710   4.747  -0.525  1.00  0.00     0.049 C 
ENDBRANCH  12  13
ENDBRANCH  10  12
ENDBRANCH   3  10
BRANCH   4  15
ATOM     15  C   UNL     1      -2.138   0.958  -0.112  1.00  0.00    -0.017 A 
ATOM     16  C   UNL     1      -2.230   0.638  -1.483  1.00  0.00     0.006 A 
ATOM     17  C   UNL     1      -2.901   2.045   0.384  1.00  0.00     0.045 A 
ATOM     18  C   UNL     1      -3.064   1.366  -2.332  1.00  0.00     0.000 A 
ATOM     19  C   UNL     1      -3.735   2.766  -0.481  1.00  0.00     0.021 A 
ATOM     20  Cl  UNL     1      -2.852   2.551   2.071  1.00  0.00    -0.084 Cl
ATOM     21  C   UNL     1      -3.816   2.428  -1.832  1.00  0.00     0.002 A 
ENDBRANCH   4  15
BRANCH   6  22
ATOM     22  C   UNL     1      -2.798  -1.701   1.565  1.00  0.00     0.336 C 
ATOM     23  O   UNL     1      -3.664  -0.826   1.844  1.00  0.00    -0.246 OA
BRANCH  22  24
ATOM     24  O   UNL     1      -2.958  -3.007   2.040  1.00  0.00    -0.466 OA
ATOM     25  C   UNL     1      -4.094  -3.418   2.791  1.00  0.00     0.282 C 
ENDBRANCH  22  24
ENDBRANCH   6  22
ENDBRANCH   1   2
BRANCH   1  26
ATOM     26  O   UNL     1       3.063  -1.517  -0.848  1.00  0.00    -0.374 OA
BRANCH  26  27
ATOM     27  C   UNL     1       4.413  -1.310  -1.223  1.00  0.00     0.175 C 
BRANCH  27  28
ATOM     28  C   UNL     1       5.317  -1.267   0.012  1.00  0.00     0.106 C 
BRANCH  28  29
ATOM     29  N   UNL     1       5.157  -2.479   0.811  1.00  0.00    -0.328 NA
ATOM     30  H   UNL     1       5.520  -3.287   0.256  1.00  0.00     0.118 HD
ATOM     31  H   UNL     1       5.776  -2.390   1.648  1.00  0.00     0.118 HD
ENDBRANCH  28  29
ENDBRANCH  27  28
ENDBRANCH  26  27
ENDBRANCH   1  26
TORSDOF 11
