REMARK SMILES CN[C@@H]1CCc2[nH]c3ccc(C(N)=O)cc3c2C1
REMARK SMILES IDX 3 1 4 2 5 3 6 4 17 5 18 6 16 7 8 8 7 9 9 10 10 11 11 12
REMARK SMILES IDX 15 13 2 15 1 16 12 18 13 19 14 20
REMARK H PARENT 7 14 2 17 13 21 13 22
REMARK Flexibility Score: inf
ROOT
ATOM      1  C   UNL     1       2.632   0.016   0.453  1.00  0.00     0.058 C 
ATOM      2  C   UNL     1       2.875  -1.407  -0.123  1.00  0.00     0.025 C 
ATOM      3  C   UNL     1       1.820  -2.419   0.364  1.00  0.00     0.056 C 
ATOM      4  C   UNL     1       0.445  -1.849   0.217  1.00  0.00     0.019 A 
ATOM      5  C   UNL     1       0.193  -0.492   0.120  1.00  0.00    -0.018 A 
ATOM      6  C   UNL     1       1.252   0.560  -0.006  1.00  0.00     0.057 C 
ATOM      7  C   UNL     1      -1.177  -0.371   0.049  1.00  0.00     0.004 A 
ATOM      8  C   UNL     1      -1.689  -1.642   0.142  1.00  0.00     0.046 A 
ATOM      9  N   UNL     1      -0.706  -2.557   0.253  1.00  0.00    -0.358 N 
ATOM     10  C   UNL     1      -3.060  -1.877   0.119  1.00  0.00     0.027 A 
ATOM     11  C   UNL     1      -3.917  -0.769  -0.011  1.00  0.00     0.016 A 
ATOM     12  C   UNL     1      -3.397   0.550  -0.124  1.00  0.00     0.040 A 
ATOM     13  C   UNL     1      -1.996   0.748  -0.085  1.00  0.00     0.024 A 
ATOM     14  H   UNL     1      -0.810  -3.592   0.348  1.00  0.00     0.166 HD
ENDROOT
BRANCH   1  15
ATOM     15  N   UNL     1       3.715   0.919   0.016  1.00  0.00    -0.317 NA
ATOM     16  C   UNL     1       3.723   2.172   0.777  1.00  0.00     0.101 C 
ATOM     17  H   UNL     1       4.633   0.453   0.208  1.00  0.00     0.122 HD
ENDBRANCH   1  15
BRANCH  12  18
ATOM     18  C   UNL     1      -4.327   1.698  -0.256  1.00  0.00     0.248 C 
ATOM     19  N   UNL     1      -3.902   2.944  -0.815  1.00  0.00    -0.366 N 
ATOM     20  O   UNL     1      -5.525   1.576   0.117  1.00  0.00    -0.270 OA
ATOM     21  H   UNL     1      -4.562   3.753  -0.841  1.00  0.00     0.159 HD
ATOM     22  H   UNL     1      -2.975   3.051  -1.281  1.00  0.00     0.159 HD
ENDBRANCH  12  18
TORSDOF 2
