REMARK SMILES CCC1(c2ccccc2)C(=O)NC(=O)N(C)C1=O
REMARK SMILES IDX 3 1 10 2 11 3 12 4 13 5 14 6 15 7 16 8 17 9 18 10 2 12 1 13
REMARK SMILES IDX 4 14 5 15 9 16 6 17 8 18 7 19
REMARK H PARENT 12 11
REMARK Flexibility Score: inf
ROOT
ATOM      1  C   UNL     1       0.206   0.864  -0.380  1.00  0.00     0.153 C 
ATOM      2  C   UNL     1       0.583   0.801  -1.858  1.00  0.00     0.248 C 
ATOM      3  O   UNL     1       0.061   1.586  -2.697  1.00  0.00    -0.273 OA
ATOM      4  N   UNL     1       1.477  -0.214  -2.327  1.00  0.00    -0.276 N 
ATOM      5  C   UNL     1       2.297  -0.936  -1.408  1.00  0.00     0.330 C 
ATOM      6  O   UNL     1       3.023  -1.877  -1.827  1.00  0.00    -0.248 OA
ATOM      7  N   UNL     1       2.316  -0.555  -0.024  1.00  0.00    -0.266 N 
ATOM      8  C   UNL     1       3.299  -1.135   0.895  1.00  0.00     0.158 C 
ATOM      9  C   UNL     1       1.488   0.546   0.392  1.00  0.00     0.250 C 
ATOM     10  O   UNL     1       1.814   1.216   1.411  1.00  0.00    -0.273 OA
ATOM     11  H   UNL     1       1.571  -0.390  -3.353  1.00  0.00     0.174 HD
ENDROOT
BRANCH   1  12
ATOM     12  C   UNL     1      -0.330   2.292  -0.026  1.00  0.00     0.028 C 
ATOM     13  C   UNL     1      -1.002   2.408   1.351  1.00  0.00     0.006 C 
ENDBRANCH   1  12
BRANCH   1  14
ATOM     14  C   UNL     1      -0.888  -0.185  -0.111  1.00  0.00    -0.023 A 
ATOM     15  C   UNL     1      -0.852  -1.034   1.021  1.00  0.00     0.005 A 
ATOM     16  C   UNL     1      -2.021  -0.254  -0.953  1.00  0.00     0.005 A 
ATOM     17  C   UNL     1      -1.882  -1.947   1.263  1.00  0.00     0.000 A 
ATOM     18  C   UNL     1      -3.047  -1.169  -0.703  1.00  0.00     0.000 A 
ATOM     19  C   UNL     1      -2.974  -2.019   0.400  1.00  0.00     0.000 A 
ENDBRANCH   1  14
TORSDOF 2
