REMARK SMILES NC1=NCC2c3ccccc3Cc3ccccc3N12
REMARK SMILES IDX 1 1 2 2 3 3 4 4 5 5 19 6 18 7 17 8 16 9 15 10 14 11 13 12
REMARK SMILES IDX 12 13 11 14 10 15 9 16 8 17 7 18 6 19
REMARK H PARENT 1 20 1 21
REMARK Flexibility Score: inf
ROOT
ATOM      1  N   UNL     1      -3.127  -1.763  -0.725  1.00  0.00    -0.369 N 
ATOM      2  C   UNL     1      -1.799  -1.935  -0.229  1.00  0.00     0.196 C 
ATOM      3  N   UNL     1      -1.146  -3.032  -0.390  1.00  0.00    -0.250 NA
ATOM      4  C   UNL     1       0.190  -2.893   0.175  1.00  0.00     0.176 C 
ATOM      5  C   UNL     1       0.210  -1.491   0.823  1.00  0.00     0.143 C 
ATOM      6  N   UNL     1      -1.083  -0.921   0.456  1.00  0.00    -0.303 N 
ATOM      7  C   UNL     1      -1.387   0.473   0.361  1.00  0.00     0.048 A 
ATOM      8  C   UNL     1      -2.337   1.052   1.210  1.00  0.00     0.027 A 
ATOM      9  C   UNL     1      -2.632   2.415   1.101  1.00  0.00     0.002 A 
ATOM     10  C   UNL     1      -1.979   3.198   0.143  1.00  0.00     0.000 A 
ATOM     11  C   UNL     1      -1.034   2.619  -0.711  1.00  0.00     0.006 A 
ATOM     12  C   UNL     1      -0.745   1.249  -0.612  1.00  0.00    -0.020 A 
ATOM     13  C   UNL     1       0.278   0.597  -1.496  1.00  0.00     0.073 C 
ATOM     14  C   UNL     1       1.494   0.239  -0.680  1.00  0.00    -0.038 A 
ATOM     15  C   UNL     1       2.708   0.885  -0.980  1.00  0.00     0.004 A 
ATOM     16  C   UNL     1       3.861   0.617  -0.244  1.00  0.00     0.000 A 
ATOM     17  C   UNL     1       3.822  -0.297   0.804  1.00  0.00     0.000 A 
ATOM     18  C   UNL     1       2.629  -0.945   1.123  1.00  0.00     0.006 A 
ATOM     19  C   UNL     1       1.444  -0.686   0.407  1.00  0.00    -0.020 A 
ATOM     20  H   UNL     1      -3.639  -0.865  -0.585  1.00  0.00     0.159 HD
ATOM     21  H   UNL     1      -3.604  -2.541  -1.233  1.00  0.00     0.159 HD
ENDROOT
TORSDOF 0
