REMARK SMILES FC(F)OC(Cl)C(F)(F)F
REMARK SMILES IDX 5 1 6 2 4 3 2 4 1 5 3 6 7 7 8 8 9 9 10 10
REMARK H PARENT
REMARK Flexibility Score: inf
ROOT
ATOM      1  C   UNL     1       0.210  -0.678  -0.224  1.00  0.00     0.320 C 
ATOM      2  Cl  UNL     1       0.564  -1.916  -1.460  1.00  0.00    -0.081 Cl
ENDROOT
BRANCH   1   3
ATOM      3  O   UNL     1      -0.283   0.476  -0.883  1.00  0.00    -0.294 OA
BRANCH   3   4
ATOM      4  C   UNL     1      -1.470   0.941  -0.275  1.00  0.00     0.485 C 
ATOM      5  F   UNL     1      -1.782   2.180  -0.801  1.00  0.00    -0.179 F 
ATOM      6  F   UNL     1      -2.515   0.073  -0.543  1.00  0.00    -0.179 F 
ENDBRANCH   3   4
ENDBRANCH   1   3
BRANCH   1   7
ATOM      7  C   UNL     1       1.489  -0.329   0.539  1.00  0.00     0.428 C 
ATOM      8  F   UNL     1       2.437   0.188  -0.327  1.00  0.00    -0.167 F 
ATOM      9  F   UNL     1       2.001  -1.462   1.146  1.00  0.00    -0.167 F 
ATOM     10  F   UNL     1       1.212   0.611   1.515  1.00  0.00    -0.167 F 
ENDBRANCH   1   7
TORSDOF 3
