REMARK SMILES CCCN[C@H]1CCc2nc(N)sc2C1
REMARK SMILES IDX 4 1 3 3 2 4 1 5 5 6 6 7 14 8 7 9 13 10 8 11 12 12 9 13 10 14
REMARK SMILES IDX 11 15
REMARK H PARENT 4 2 11 16 11 17
REMARK Flexibility Score: inf
ROOT
ATOM      1  N   UNL     1      -1.480  -1.294  -0.326  1.00  0.00    -0.314 NA
ATOM      2  H   UNL     1      -1.754  -1.981   0.416  1.00  0.00     0.122 HD
ENDROOT
BRANCH   1   3
ATOM      3  C   UNL     1      -2.338  -0.108  -0.187  1.00  0.00     0.081 C 
BRANCH   3   4
ATOM      4  C   UNL     1      -3.730  -0.417  -0.743  1.00  0.00     0.012 C 
ATOM      5  C   UNL     1      -4.657   0.789  -0.623  1.00  0.00     0.005 C 
ENDBRANCH   3   4
ENDBRANCH   1   3
BRANCH   1   6
ATOM      6  C   UNL     1      -0.030  -1.035  -0.200  1.00  0.00     0.059 C 
ATOM      7  C   UNL     1       0.540  -0.329  -1.453  1.00  0.00     0.026 C 
ATOM      8  C   UNL     1       0.355  -0.274   1.093  1.00  0.00     0.067 C 
ATOM      9  C   UNL     1       2.081  -0.306  -1.420  1.00  0.00     0.059 C 
ATOM     10  C   UNL     1       1.819   0.042   1.081  1.00  0.00     0.031 A 
ATOM     11  C   UNL     1       2.596   0.117  -0.072  1.00  0.00     0.057 A 
ATOM     12  S   UNL     1       2.741   0.547   2.393  1.00  0.00    -0.102 S 
ATOM     13  N   UNL     1       3.881   0.513   0.129  1.00  0.00    -0.225 NA
ATOM     14  C   UNL     1       4.106   0.789   1.434  1.00  0.00     0.180 A 
BRANCH  14  15
ATOM     15  N   UNL     1       5.365   1.238   1.927  1.00  0.00    -0.375 N 
ATOM     16  H   UNL     1       6.170   1.368   1.276  1.00  0.00     0.159 HD
ATOM     17  H   UNL     1       5.491   1.439   2.944  1.00  0.00     0.159 HD
ENDBRANCH  14  15
ENDBRANCH   1   6
TORSDOF 4
