REMARK SMILES CCOC(=O)[C@H](CCc1ccccc1)N[C@@H](C)C(=O)N1Cc2cc(OC)c(OC)cc2C[C@H]1C(=O)O
REMARK SMILES IDX 16 1 17 2 15 3 6 5 4 6 5 7 3 8 2 9 1 10 7 11 8 12 9 13 10 14
REMARK SMILES IDX 14 15 11 16 13 17 12 18 18 19 19 20 20 21 21 22 33 23 22 24
REMARK SMILES IDX 32 25 23 26 31 27 24 28 30 29 27 30 34 31 35 32 36 33 25 35
REMARK SMILES IDX 26 36 28 37 29 38
REMARK H PARENT 15 4 36 34
REMARK Flexibility Score: inf
ROOT
ATOM      1  C   UNL     1       0.252  -1.379   0.232  1.00  0.00     0.141 C 
ATOM      2  C   UNL     1       0.250  -2.895  -0.011  1.00  0.00     0.035 C 
ENDROOT
BRANCH   1   3
ATOM      3  N   UNL     1       1.469  -0.950   0.956  1.00  0.00    -0.293 NA
ATOM      4  H   UNL     1       1.339   0.060   1.201  1.00  0.00     0.124 HD
BRANCH   3   5
ATOM      5  C   UNL     1       2.709  -1.104   0.160  1.00  0.00     0.165 C 
BRANCH   5   6
ATOM      6  C   UNL     1       3.329  -2.440   0.466  1.00  0.00     0.323 C 
ATOM      7  O   UNL     1       3.490  -2.802   1.664  1.00  0.00    -0.250 OA
BRANCH   6   8
ATOM      8  O   UNL     1       3.727  -3.266  -0.590  1.00  0.00    -0.465 OA
BRANCH   8   9
ATOM      9  C   UNL     1       4.397  -4.511  -0.404  1.00  0.00     0.229 C 
ATOM     10  C   UNL     1       5.853  -4.282  -0.012  1.00  0.00     0.049 C 
ENDBRANCH   8   9
ENDBRANCH   6   8
ENDBRANCH   5   6
BRANCH   5  11
ATOM     11  C   UNL     1       3.717   0.028   0.476  1.00  0.00     0.036 C 
BRANCH  11  12
ATOM     12  C   UNL     1       4.989  -0.064  -0.381  1.00  0.00     0.038 C 
BRANCH  12  13
ATOM     13  C   UNL     1       5.903   1.099  -0.104  1.00  0.00    -0.048 A 
ATOM     14  C   UNL     1       5.820   2.268  -0.881  1.00  0.00     0.004 A 
ATOM     15  C   UNL     1       6.819   1.042   0.960  1.00  0.00     0.004 A 
ATOM     16  C   UNL     1       6.665   3.350  -0.616  1.00  0.00     0.000 A 
ATOM     17  C   UNL     1       7.661   2.126   1.222  1.00  0.00     0.000 A 
ATOM     18  C   UNL     1       7.587   3.278   0.433  1.00  0.00     0.000 A 
ENDBRANCH  12  13
ENDBRANCH  11  12
ENDBRANCH   5  11
ENDBRANCH   3   5
ENDBRANCH   1   3
BRANCH   1  19
ATOM     19  C   UNL     1      -0.976  -1.025   1.048  1.00  0.00     0.240 C 
ATOM     20  O   UNL     1      -0.918  -1.177   2.299  1.00  0.00    -0.273 OA
BRANCH  19  21
ATOM     21  N   UNL     1      -2.213  -0.563   0.448  1.00  0.00    -0.323 N 
ATOM     22  C   UNL     1      -3.246  -0.023   1.358  1.00  0.00     0.156 C 
ATOM     23  C   UNL     1      -2.401  -0.558  -1.019  1.00  0.00     0.199 C 
ATOM     24  C   UNL     1      -4.447   0.559   0.649  1.00  0.00    -0.021 A 
ATOM     25  C   UNL     1      -3.873  -0.792  -1.382  1.00  0.00     0.073 C 
ATOM     26  C   UNL     1      -5.298   1.436   1.336  1.00  0.00     0.056 A 
ATOM     27  C   UNL     1      -4.759   0.181  -0.665  1.00  0.00    -0.036 A 
ATOM     28  C   UNL     1      -6.454   1.948   0.716  1.00  0.00     0.161 A 
ATOM     29  C   UNL     1      -5.912   0.681  -1.284  1.00  0.00     0.054 A 
ATOM     30  C   UNL     1      -6.760   1.573  -0.600  1.00  0.00     0.161 A 
BRANCH  23  31
ATOM     31  C   UNL     1      -1.897   0.733  -1.611  1.00  0.00     0.326 C 
ATOM     32  O   UNL     1      -1.636   0.799  -2.844  1.00  0.00    -0.250 OA
BRANCH  31  33
ATOM     33  O   UNL     1      -1.776   1.873  -0.819  1.00  0.00    -0.480 OA
ATOM     34  H   UNL     1      -1.452   2.749  -1.215  1.00  0.00     0.296 HD
ENDBRANCH  31  33
ENDBRANCH  23  31
BRANCH  28  35
ATOM     35  O   UNL     1      -7.326   2.828   1.377  1.00  0.00    -0.493 OA
ATOM     36  C   UNL     1      -7.144   3.299   2.707  1.00  0.00     0.278 C 
ENDBRANCH  28  35
BRANCH  30  37
ATOM     37  O   UNL     1      -7.918   2.104  -1.192  1.00  0.00    -0.493 OA
ATOM     38  C   UNL     1      -8.328   1.851  -2.532  1.00  0.00     0.278 C 
ENDBRANCH  30  37
ENDBRANCH  19  21
ENDBRANCH   1  19
TORSDOF 14
