REMARK SMILES CN1C[C@H](C(=O)N[C@]2(C)O[C@@]3(O)[C@@H]4CCCN4C(=O)[C@H](Cc4ccccc4)N3C2=O)C=C2c3cccc4[nH]cc(c34)C[C@H]21
REMARK SMILES IDX 13 1 14 2 15 3 16 4 17 5 18 6 19 7 20 8 28 9 29 10 30 11
REMARK SMILES IDX 8 12 9 13 10 14 11 15 12 16 21 18 22 19 23 20 27 21 24 22
REMARK SMILES IDX 26 23 25 24 7 25 5 26 6 28 4 29 3 30 31 31 2 32 32 33 1 34
REMARK SMILES IDX 43 35 33 36 42 37 34 38 41 39 40 40 35 41 37 42 39 43 36 44
REMARK SMILES IDX 38 45
REMARK H PARENT 12 17 7 27 38 46
REMARK Flexibility Score: inf
ROOT
ATOM      1  C   UNL     1      -3.384   1.623  -1.584  1.00  0.00     0.168 C 
ATOM      2  C   UNL     1      -2.981   3.066  -1.912  1.00  0.00     0.035 C 
ATOM      3  C   UNL     1      -3.923   3.971  -1.120  1.00  0.00     0.024 C 
ATOM      4  C   UNL     1      -5.039   3.084  -0.580  1.00  0.00     0.120 C 
ATOM      5  N   UNL     1      -4.593   1.720  -0.787  1.00  0.00    -0.330 N 
ATOM      6  C   UNL     1      -5.107   0.601  -0.044  1.00  0.00     0.246 C 
ATOM      7  O   UNL     1      -6.265   0.661   0.454  1.00  0.00    -0.272 OA
ATOM      8  C   UNL     1      -4.259  -0.643   0.151  1.00  0.00     0.184 C 
ATOM      9  N   UNL     1      -2.905  -0.434  -0.383  1.00  0.00    -0.273 N 
ATOM     10  C   UNL     1      -2.031  -1.430  -0.822  1.00  0.00     0.280 C 
ATOM     11  O   UNL     1      -2.246  -2.661  -0.684  1.00  0.00    -0.269 OA
ATOM     12  C   UNL     1      -0.875  -0.825  -1.504  1.00  0.00     0.223 C 
ATOM     13  C   UNL     1      -0.659  -1.468  -2.876  1.00  0.00     0.079 C 
ATOM     14  O   UNL     1      -1.214   0.548  -1.655  1.00  0.00    -0.295 OA
ATOM     15  C   UNL     1      -2.322   0.831  -0.804  1.00  0.00     0.276 C 
ENDROOT
BRANCH  15  16
ATOM     16  O   UNL     1      -1.859   1.545   0.314  1.00  0.00    -0.347 OA
ATOM     17  H   UNL     1      -2.625   1.673   0.932  1.00  0.00     0.216 HD
ENDBRANCH  15  16
BRANCH   8  18
ATOM     18  C   UNL     1      -4.161  -1.038   1.641  1.00  0.00     0.071 C 
BRANCH  18  19
ATOM     19  C   UNL     1      -5.384  -1.781   2.113  1.00  0.00    -0.045 A 
ATOM     20  C   UNL     1      -6.322  -1.162   2.956  1.00  0.00     0.004 A 
ATOM     21  C   UNL     1      -5.599  -3.105   1.697  1.00  0.00     0.004 A 
ATOM     22  C   UNL     1      -7.453  -1.864   3.383  1.00  0.00     0.000 A 
ATOM     23  C   UNL     1      -6.736  -3.801   2.120  1.00  0.00     0.000 A 
ATOM     24  C   UNL     1      -7.666  -3.182   2.958  1.00  0.00     0.000 A 
ENDBRANCH  18  19
ENDBRANCH   8  18
BRANCH  12  25
ATOM     25  N   UNL     1       0.323  -0.942  -0.666  1.00  0.00    -0.320 N 
ATOM     26  C   UNL     1       1.450  -0.074  -0.841  1.00  0.00     0.230 C 
ATOM     27  H   UNL     1       0.348  -1.653   0.105  1.00  0.00     0.166 HD
ATOM     28  O   UNL     1       1.863   0.172  -2.008  1.00  0.00    -0.274 OA
BRANCH  26  29
ATOM     29  C   UNL     1       2.008   0.711   0.330  1.00  0.00     0.115 C 
ATOM     30  C   UNL     1       2.266  -0.125   1.592  1.00  0.00     0.102 C 
ATOM     31  C   UNL     1       3.278   1.411  -0.034  1.00  0.00    -0.007 C 
ATOM     32  N   UNL     1       3.416  -1.059   1.471  1.00  0.00    -0.298 NA
ATOM     33  C   UNL     1       4.441   0.751   0.008  1.00  0.00    -0.026 C 
ATOM     34  C   UNL     1       2.959  -2.461   1.352  1.00  0.00     0.106 C 
ATOM     35  C   UNL     1       4.444  -0.737   0.439  1.00  0.00     0.091 C 
ATOM     36  C   UNL     1       5.695   1.346  -0.545  1.00  0.00    -0.011 A 
ATOM     37  C   UNL     1       5.836  -1.218   0.970  1.00  0.00     0.061 C 
ATOM     38  C   UNL     1       5.824   2.580  -1.233  1.00  0.00     0.009 A 
ATOM     39  C   UNL     1       6.839   0.592  -0.422  1.00  0.00     0.010 A 
ATOM     40  C   UNL     1       6.959  -0.605   0.197  1.00  0.00    -0.020 A 
ATOM     41  C   UNL     1       7.086   2.982  -1.740  1.00  0.00     0.003 A 
ATOM     42  C   UNL     1       8.055   0.960  -0.895  1.00  0.00     0.046 A 
ATOM     43  C   UNL     1       8.306  -0.937   0.107  1.00  0.00     0.087 A 
ATOM     44  C   UNL     1       8.227   2.167  -1.573  1.00  0.00     0.027 A 
ATOM     45  N   UNL     1       8.977   0.027  -0.581  1.00  0.00    -0.361 N 
ATOM     46  H   UNL     1       9.996   0.041  -0.802  1.00  0.00     0.166 HD
ENDBRANCH  26  29
ENDBRANCH  12  25
TORSDOF 5
