REMARK SMILES CN1C(C(=O)Nc2ccccn2)=C(O)c2ccccc2S1(=O)=O
REMARK SMILES IDX 1 1 2 2 3 3 13 4 15 5 20 6 19 7 18 8 17 9 16 10 21 11 22 12
REMARK SMILES IDX 23 13 4 14 5 15 6 16 7 18 12 19 8 20 11 21 9 22 10 23 14 24
REMARK H PARENT 6 17 14 25
REMARK Flexibility Score: inf
ROOT
ATOM      1  C   UNL     1      -0.118  -1.092   2.259  1.00  0.00     0.164 C 
ATOM      2  N   UNL     1      -0.946  -0.645   1.136  1.00  0.00    -0.261 N 
ATOM      3  C   UNL     1      -0.455   0.329   0.185  1.00  0.00     0.159 C 
ATOM      4  C   UNL     1      -1.284   1.011  -0.657  1.00  0.00     0.154 C 
ATOM      5  C   UNL     1      -2.775   0.876  -0.653  1.00  0.00     0.039 A 
ATOM      6  C   UNL     1      -3.443  -0.159   0.030  1.00  0.00     0.099 A 
ATOM      7  C   UNL     1      -4.839  -0.269  -0.025  1.00  0.00     0.023 A 
ATOM      8  C   UNL     1      -5.587   0.654  -0.756  1.00  0.00     0.001 A 
ATOM      9  C   UNL     1      -4.943   1.688  -1.434  1.00  0.00     0.001 A 
ATOM     10  C   UNL     1      -3.551   1.798  -1.386  1.00  0.00     0.013 A 
ATOM     11  S   UNL     1      -2.530  -1.307   0.960  1.00  0.00     0.265 S 
ATOM     12  O   UNL     1      -3.171  -1.476   2.309  1.00  0.00    -0.201 OA
ATOM     13  O   UNL     1      -2.460  -2.626   0.243  1.00  0.00    -0.201 OA
ENDROOT
BRANCH   3  14
ATOM     14  C   UNL     1       1.000   0.594   0.151  1.00  0.00     0.277 C 
ATOM     15  O   UNL     1       1.426   1.742   0.455  1.00  0.00    -0.267 OA
ATOM     16  N   UNL     1       1.908  -0.455  -0.223  1.00  0.00    -0.305 N 
ATOM     17  H   UNL     1       1.492  -1.360  -0.543  1.00  0.00     0.171 HD
BRANCH  16  18
ATOM     18  C   UNL     1       3.341  -0.342  -0.185  1.00  0.00     0.132 A 
ATOM     19  N   UNL     1       3.941   0.797   0.263  1.00  0.00    -0.239 NA
ATOM     20  C   UNL     1       4.137  -1.418  -0.606  1.00  0.00     0.047 A 
ATOM     21  C   UNL     1       5.294   0.927   0.314  1.00  0.00     0.113 A 
ATOM     22  C   UNL     1       5.528  -1.304  -0.561  1.00  0.00     0.005 A 
ATOM     23  C   UNL     1       6.114  -0.124  -0.099  1.00  0.00     0.020 A 
ENDBRANCH  16  18
ENDBRANCH   3  14
BRANCH   4  24
ATOM     24  O   UNL     1      -0.751   1.897  -1.605  1.00  0.00    -0.505 OA
ATOM     25  H   UNL     1       0.238   2.020  -1.784  1.00  0.00     0.293 HD
ENDBRANCH   4  24
TORSDOF 3
