REMARK SMILES CCCc1nc(C(C)(C)O)c(C(=O)O)n1Cc1ccc(-c2ccccc2-c2nnn[nH]2)cc1
REMARK SMILES IDX 16 1 15 2 4 3 5 4 6 5 11 6 3 7 2 8 1 9 7 10 8 11 9 12 10 13
REMARK SMILES IDX 12 15 13 16 14 17 17 19 18 20 33 21 19 22 32 23 20 24 21 25
REMARK SMILES IDX 26 26 22 27 25 28 23 29 24 30 27 31 28 32 31 33 29 34 30 35
REMARK H PARENT 10 14 14 18 31 36
REMARK Flexibility Score: inf
ROOT
ATOM      1  C   UNL     1      -0.898   0.369   1.872  1.00  0.00     0.159 C 
ENDROOT
BRANCH   1   2
ATOM      2  N   UNL     1      -1.889  -0.274   0.998  1.00  0.00    -0.318 N 
ATOM      3  C   UNL     1      -2.605   0.322   0.015  1.00  0.00     0.110 A 
ATOM      4  N   UNL     1      -3.486  -0.513  -0.570  1.00  0.00    -0.234 NA
ATOM      5  C   UNL     1      -3.305  -1.699   0.048  1.00  0.00     0.105 A 
ATOM      6  C   UNL     1      -2.328  -1.554   1.032  1.00  0.00     0.153 A 
BRANCH   3   7
ATOM      7  C   UNL     1      -2.528   1.779  -0.346  1.00  0.00     0.075 C 
BRANCH   7   8
ATOM      8  C   UNL     1      -3.543   2.589   0.465  1.00  0.00     0.005 C 
ATOM      9  C   UNL     1      -3.454   4.074   0.130  1.00  0.00     0.004 C 
ENDBRANCH   7   8
ENDBRANCH   3   7
BRANCH   5  10
ATOM     10  C   UNL     1      -4.124  -2.937  -0.294  1.00  0.00     0.103 C 
ATOM     11  C   UNL     1      -5.366  -2.979   0.607  1.00  0.00     0.049 C 
ATOM     12  C   UNL     1      -4.575  -2.898  -1.768  1.00  0.00     0.049 C 
BRANCH  10  13
ATOM     13  O   UNL     1      -3.374  -4.108  -0.082  1.00  0.00    -0.384 OA
ATOM     14  H   UNL     1      -2.561  -4.056  -0.651  1.00  0.00     0.211 HD
ENDBRANCH  10  13
ENDBRANCH   5  10
BRANCH   6  15
ATOM     15  C   UNL     1      -1.849  -2.590   1.974  1.00  0.00     0.354 C 
ATOM     16  O   UNL     1      -2.652  -3.429   2.460  1.00  0.00    -0.245 OA
BRANCH  15  17
ATOM     17  O   UNL     1      -0.505  -2.650   2.328  1.00  0.00    -0.477 OA
ATOM     18  H   UNL     1      -0.167  -3.358   2.969  1.00  0.00     0.297 HD
ENDBRANCH  15  17
ENDBRANCH   6  15
ENDBRANCH   1   2
BRANCH   1  19
ATOM     19  C   UNL     1       0.397   0.621   1.138  1.00  0.00    -0.028 A 
ATOM     20  C   UNL     1       0.988  -0.384   0.354  1.00  0.00     0.006 A 
ATOM     21  C   UNL     1       1.047   1.859   1.267  1.00  0.00     0.006 A 
ATOM     22  C   UNL     1       2.196  -0.146  -0.306  1.00  0.00     0.009 A 
ATOM     23  C   UNL     1       2.255   2.097   0.606  1.00  0.00     0.009 A 
ATOM     24  C   UNL     1       2.843   1.093  -0.178  1.00  0.00    -0.018 A 
BRANCH  24  25
ATOM     25  C   UNL     1       4.114   1.353  -0.891  1.00  0.00    -0.007 A 
ATOM     26  C   UNL     1       5.270   0.547  -0.705  1.00  0.00     0.028 A 
ATOM     27  C   UNL     1       4.149   2.404  -1.824  1.00  0.00     0.009 A 
ATOM     28  C   UNL     1       6.412   0.802  -1.486  1.00  0.00     0.013 A 
ATOM     29  C   UNL     1       5.296   2.647  -2.579  1.00  0.00     0.001 A 
ATOM     30  C   UNL     1       6.423   1.844  -2.415  1.00  0.00     0.001 A 
BRANCH  26  31
ATOM     31  C   UNL     1       5.334  -0.520   0.324  1.00  0.00     0.180 A 
ATOM     32  N   UNL     1       4.672  -0.500   1.497  1.00  0.00    -0.109 NA
ATOM     33  N   UNL     1       6.092  -1.626   0.243  1.00  0.00    -0.239 N 
ATOM     34  N   UNL     1       5.035  -1.614   2.117  1.00  0.00    -0.024 NA
ATOM     35  N   UNL     1       5.888  -2.292   1.365  1.00  0.00    -0.048 NA
ATOM     36  H   UNL     1       6.712  -1.936  -0.537  1.00  0.00     0.194 HD
ENDBRANCH  26  31
ENDBRANCH  24  25
ENDBRANCH   1  19
TORSDOF 10
