REMARK SMILES C#C[C@]1(OC(C)=O)CC[C@H]2[C@@H]3CCC4=C[C@@H](OC(C)=O)CC[C@@H]4[C@H]3CC[C@@]21C
REMARK SMILES IDX 10 1 9 2 8 3 3 4 27 5 28 6 26 7 25 8 24 9 23 10 22 11 21 12
REMARK SMILES IDX 16 13 15 14 14 15 13 16 12 17 11 18 4 19 5 20 6 21 7 22 2 23
REMARK SMILES IDX 1 24 17 25 18 26 19 27 20 28
REMARK H PARENT
REMARK Flexibility Score: inf
ROOT
ATOM      1  C   UNL     1      -1.729  -1.072  -0.010  1.00  0.00     0.003 C 
ATOM      2  C   UNL     1      -2.578  -2.122  -0.718  1.00  0.00     0.010 C 
ATOM      3  C   UNL     1      -4.025  -1.613  -0.576  1.00  0.00     0.063 C 
ATOM      4  C   UNL     1      -3.952  -0.191   0.050  1.00  0.00     0.177 C 
ATOM      5  C   UNL     1      -2.482   0.248  -0.234  1.00  0.00     0.022 C 
ATOM      6  C   UNL     1      -2.391   0.772  -1.708  1.00  0.00     0.017 C 
ATOM      7  C   UNL     1      -1.873   1.308   0.719  1.00  0.00     0.012 C 
ATOM      8  C   UNL     1      -0.353   1.472   0.482  1.00  0.00     0.005 C 
ATOM      9  C   UNL     1       0.433   0.126   0.525  1.00  0.00    -0.001 C 
ATOM     10  C   UNL     1       1.907   0.285   0.065  1.00  0.00     0.018 C 
ATOM     11  C   UNL     1       2.658   1.423   0.783  1.00  0.00     0.012 C 
ATOM     12  C   UNL     1       4.095   1.484   0.262  1.00  0.00     0.050 C 
ATOM     13  C   UNL     1       4.850   0.176   0.552  1.00  0.00     0.199 C 
ATOM     14  C   UNL     1       3.998  -1.059   0.365  1.00  0.00     0.017 C 
ATOM     15  C   UNL     1       2.652  -1.032   0.237  1.00  0.00    -0.067 C 
ATOM     16  C   UNL     1       1.888  -2.325   0.435  1.00  0.00     0.031 C 
ATOM     17  C   UNL     1       0.480  -2.356  -0.194  1.00  0.00     0.008 C 
ATOM     18  C   UNL     1      -0.226  -0.981  -0.355  1.00  0.00    -0.003 C 
ENDROOT
BRANCH   4  19
ATOM     19  O   UNL     1      -4.884   0.707  -0.569  1.00  0.00    -0.445 OA
BRANCH  19  20
ATOM     20  C   UNL     1      -6.274   0.521  -0.603  1.00  0.00     0.304 C 
ATOM     21  C   UNL     1      -7.129   1.540  -1.276  1.00  0.00     0.139 C 
ATOM     22  O   UNL     1      -6.810  -0.470  -0.038  1.00  0.00    -0.253 OA
ENDBRANCH  19  20
ENDBRANCH   4  19
BRANCH   4  23
ATOM     23  C   UNL     1      -4.244  -0.267   1.504  1.00  0.00    -0.058 C 
ATOM     24  C   UNL     1      -4.483  -0.332   2.684  1.00  0.00     0.008 C 
ENDBRANCH   4  23
BRANCH  13  25
ATOM     25  O   UNL     1       5.999   0.071  -0.289  1.00  0.00    -0.458 OA
BRANCH  25  26
ATOM     26  C   UNL     1       7.149   0.851  -0.129  1.00  0.00     0.303 C 
ATOM     27  C   UNL     1       8.287   0.683  -1.076  1.00  0.00     0.139 C 
ATOM     28  O   UNL     1       7.254   1.657   0.835  1.00  0.00    -0.253 OA
ENDBRANCH  25  26
ENDBRANCH  13  25
TORSDOF 5
