REMARK SMILES C=C(CC)C(=O)c1ccc(OCC(=O)O)c(Cl)c1Cl
REMARK SMILES IDX 7 1 18 2 19 3 16 4 17 5 10 6 9 7 8 8 5 9 6 10 2 11 1 12 3 13
REMARK SMILES IDX 4 14 11 15 12 16 13 17 14 18 15 19
REMARK H PARENT 15 20
REMARK Flexibility Score: inf
ROOT
ATOM      1  C   UNL     1       0.373   0.339   0.099  1.00  0.00     0.043 A 
ATOM      2  C   UNL     1       0.317  -1.045  -0.175  1.00  0.00     0.074 A 
ATOM      3  Cl  UNL     1       1.756  -1.911  -0.725  1.00  0.00    -0.082 Cl
ATOM      4  C   UNL     1      -0.906  -1.732  -0.054  1.00  0.00     0.102 A 
ATOM      5  Cl  UNL     1      -0.998  -3.461  -0.385  1.00  0.00    -0.079 Cl
ATOM      6  C   UNL     1      -2.073  -1.046   0.321  1.00  0.00     0.140 A 
ATOM      7  C   UNL     1      -2.008   0.336   0.571  1.00  0.00     0.049 A 
ATOM      8  C   UNL     1      -0.798   1.019   0.454  1.00  0.00     0.017 A 
ENDROOT
BRANCH   1   9
ATOM      9  C   UNL     1       1.635   1.104  -0.001  1.00  0.00     0.189 C 
ATOM     10  O   UNL     1       1.682   2.076  -0.802  1.00  0.00    -0.289 OA
BRANCH   9  11
ATOM     11  C   UNL     1       2.832   0.780   0.822  1.00  0.00    -0.007 C 
ATOM     12  C   UNL     1       2.733   0.017   1.918  1.00  0.00     0.016 C 
BRANCH  11  13
ATOM     13  C   UNL     1       4.188   1.294   0.398  1.00  0.00     0.035 C 
ATOM     14  C   UNL     1       4.807   0.377  -0.651  1.00  0.00     0.009 C 
ENDBRANCH  11  13
ENDBRANCH   9  11
ENDBRANCH   1   9
BRANCH   6  15
ATOM     15  O   UNL     1      -3.273  -1.771   0.432  1.00  0.00    -0.480 OA
BRANCH  15  16
ATOM     16  C   UNL     1      -4.553  -1.216   0.735  1.00  0.00     0.351 C 
BRANCH  16  17
ATOM     17  C   UNL     1      -5.070  -0.420  -0.420  1.00  0.00     0.341 C 
ATOM     18  O   UNL     1      -5.139  -0.942  -1.565  1.00  0.00    -0.248 OA
BRANCH  17  19
ATOM     19  O   UNL     1      -5.493   0.891  -0.227  1.00  0.00    -0.479 OA
ATOM     20  H   UNL     1      -5.850   1.442  -0.999  1.00  0.00     0.296 HD
ENDBRANCH  17  19
ENDBRANCH  16  17
ENDBRANCH  15  16
ENDBRANCH   6  15
TORSDOF 7
