REMARK SMILES CC(=O)c1ccc(S(=O)(=O)NC(=O)NC2CCCCC2)cc1
REMARK SMILES IDX 8 1 9 2 10 3 7 4 4 5 5 6 22 7 6 8 21 9 2 10 1 11 3 12 11 13
REMARK SMILES IDX 12 14 13 16 14 17 15 19 16 20 20 21 17 22 19 23 18 24
REMARK H PARENT 11 15 14 18
REMARK Flexibility Score: inf
ROOT
ATOM      1  S   UNL     1       1.564  -3.005  -0.008  1.00  0.00     0.265 S 
ATOM      2  O   UNL     1       2.317  -4.000  -0.845  1.00  0.00    -0.201 OA
ATOM      3  O   UNL     1       1.035  -3.703   1.214  1.00  0.00    -0.201 OA
ENDROOT
BRANCH   1   4
ATOM      4  C   UNL     1       2.649  -1.693   0.438  1.00  0.00     0.087 A 
ATOM      5  C   UNL     1       4.371   0.434   1.124  1.00  0.00     0.017 A 
ATOM      6  C   UNL     1       3.784  -0.366   2.123  1.00  0.00     0.013 A 
ATOM      7  C   UNL     1       4.079   0.152  -0.225  1.00  0.00     0.013 A 
ATOM      8  C   UNL     1       2.931  -1.420   1.783  1.00  0.00     0.023 A 
ATOM      9  C   UNL     1       3.224  -0.902  -0.562  1.00  0.00     0.023 A 
BRANCH   5  10
ATOM     10  C   UNL     1       5.277   1.552   1.502  1.00  0.00     0.159 C 
ATOM     11  C   UNL     1       5.945   2.414   0.472  1.00  0.00     0.093 C 
ATOM     12  O   UNL     1       5.495   1.796   2.720  1.00  0.00    -0.295 OA
ENDBRANCH   5  10
ENDBRANCH   1   4
BRANCH   1  13
ATOM     13  N   UNL     1       0.236  -2.370  -0.920  1.00  0.00    -0.231 N 
ATOM     14  C   UNL     1      -0.645  -1.380  -0.378  1.00  0.00     0.328 C 
ATOM     15  H   UNL     1       0.092  -2.711  -1.897  1.00  0.00     0.185 HD
ATOM     16  O   UNL     1      -0.483  -0.970   0.804  1.00  0.00    -0.248 OA
ATOM     17  N   UNL     1      -1.707  -0.853  -1.185  1.00  0.00    -0.335 N 
ATOM     18  H   UNL     1      -1.778  -1.177  -2.177  1.00  0.00     0.165 HD
BRANCH  17  19
ATOM     19  C   UNL     1      -2.650   0.152  -0.683  1.00  0.00     0.083 C 
ATOM     20  C   UNL     1      -3.370   0.841  -1.858  1.00  0.00     0.025 C 
ATOM     21  C   UNL     1      -3.673  -0.509   0.259  1.00  0.00     0.025 C 
ATOM     22  C   UNL     1      -4.396   1.864  -1.353  1.00  0.00     0.002 C 
ATOM     23  C   UNL     1      -4.703   0.512   0.760  1.00  0.00     0.002 C 
ATOM     24  C   UNL     1      -5.410   1.205  -0.411  1.00  0.00     0.000 C 
ENDBRANCH  17  19
ENDBRANCH   1  13
TORSDOF 4
