REMARK SMILES CCN(CC)Cc1cc(Nc2ccnc3cc(Cl)ccc23)ccc1O
REMARK SMILES IDX 7 1 24 2 23 3 22 4 9 5 8 6 6 7 3 8 2 9 1 10 4 11 5 12 25 13
REMARK SMILES IDX 10 15 11 17 21 18 12 19 20 20 15 21 13 22 19 23 16 24 14 25
REMARK SMILES IDX 17 26 18 27
REMARK H PARENT 25 14 10 16
REMARK Flexibility Score: inf
ROOT
ATOM      1  C   UNL     1      -1.212   0.813   0.148  1.00  0.00     0.010 A 
ATOM      2  C   UNL     1      -0.533   1.364   1.261  1.00  0.00     0.120 A 
ATOM      3  C   UNL     1       0.753   0.917   1.578  1.00  0.00     0.048 A 
ATOM      4  C   UNL     1       1.379  -0.061   0.805  1.00  0.00     0.030 A 
ATOM      5  C   UNL     1       0.726  -0.607  -0.313  1.00  0.00     0.039 A 
ATOM      6  C   UNL     1      -0.568  -0.168  -0.627  1.00  0.00     0.035 A 
ENDROOT
BRANCH   1   7
ATOM      7  C   UNL     1      -2.616   1.241  -0.225  1.00  0.00     0.124 C 
BRANCH   7   8
ATOM      8  N   UNL     1      -3.591   0.856   0.821  1.00  0.00    -0.299 NA
BRANCH   8   9
ATOM      9  C   UNL     1      -3.821  -0.609   0.824  1.00  0.00     0.081 C 
ATOM     10  C   UNL     1      -4.155  -1.087   2.234  1.00  0.00     0.021 C 
ENDBRANCH   8   9
BRANCH   8  11
ATOM     11  C   UNL     1      -4.870   1.584   0.634  1.00  0.00     0.081 C 
ATOM     12  C   UNL     1      -4.833   2.935   1.343  1.00  0.00     0.021 C 
ENDBRANCH   8  11
ENDBRANCH   7   8
ENDBRANCH   1   7
BRANCH   2  13
ATOM     13  O   UNL     1      -1.101   2.351   2.067  1.00  0.00    -0.508 OA
ATOM     14  H   UNL     1      -2.014   2.747   1.896  1.00  0.00     0.293 HD
ENDBRANCH   2  13
BRANCH   5  15
ATOM     15  N   UNL     1       1.344  -1.621  -1.127  1.00  0.00    -0.355 N 
ATOM     16  H   UNL     1       0.733  -2.208  -1.739  1.00  0.00     0.167 HD
BRANCH  15  17
ATOM     17  C   UNL     1       2.722  -2.006  -1.010  1.00  0.00     0.049 A 
ATOM     18  C   UNL     1       3.777  -1.110  -1.301  1.00  0.00     0.024 A 
ATOM     19  C   UNL     1       3.024  -3.314  -0.614  1.00  0.00     0.047 A 
ATOM     20  C   UNL     1       3.548   0.196  -1.774  1.00  0.00     0.014 A 
ATOM     21  C   UNL     1       5.111  -1.556  -1.131  1.00  0.00     0.074 A 
ATOM     22  C   UNL     1       4.354  -3.706  -0.466  1.00  0.00     0.114 A 
ATOM     23  C   UNL     1       4.624   1.049  -2.037  1.00  0.00     0.021 A 
ATOM     24  C   UNL     1       6.180  -0.692  -1.397  1.00  0.00     0.049 A 
ATOM     25  N   UNL     1       5.358  -2.828  -0.720  1.00  0.00    -0.256 NA
ATOM     26  C   UNL     1       5.936   0.609  -1.845  1.00  0.00     0.043 A 
ATOM     27  Cl  UNL     1       7.280   1.687  -2.178  1.00  0.00    -0.084 Cl
ENDBRANCH  15  17
ENDBRANCH   5  15
TORSDOF 7
