REMARK SMILES C=CCC1(C(C)CCC)C(=O)NC(=O)NC1=O
REMARK SMILES IDX 4 1 10 2 11 3 12 4 13 5 14 6 15 7 16 8 17 9 5 12 6 13 7 14
REMARK SMILES IDX 8 15 9 16 3 17 2 18 1 19
REMARK H PARENT 12 10 15 11
REMARK Flexibility Score: inf
ROOT
ATOM      1  C   UNL     1      -0.571   0.117  -0.455  1.00  0.00     0.134 C 
ATOM      2  C   UNL     1      -0.506   1.154   0.670  1.00  0.00     0.244 C 
ATOM      3  O   UNL     1      -0.130   2.329   0.407  1.00  0.00    -0.273 OA
ATOM      4  N   UNL     1      -0.921   0.856   2.006  1.00  0.00    -0.277 N 
ATOM      5  C   UNL     1      -1.305  -0.459   2.388  1.00  0.00     0.328 C 
ATOM      6  O   UNL     1      -1.652  -0.693   3.576  1.00  0.00    -0.248 OA
ATOM      7  N   UNL     1      -1.289  -1.511   1.431  1.00  0.00    -0.277 N 
ATOM      8  C   UNL     1      -0.949  -1.273   0.062  1.00  0.00     0.244 C 
ATOM      9  O   UNL     1      -1.010  -2.240  -0.745  1.00  0.00    -0.273 OA
ATOM     10  H   UNL     1      -0.917   1.616   2.724  1.00  0.00     0.174 HD
ATOM     11  H   UNL     1      -1.553  -2.476   1.731  1.00  0.00     0.174 HD
ENDROOT
BRANCH   1  12
ATOM     12  C   UNL     1       0.844   0.073  -1.184  1.00  0.00     0.011 C 
ATOM     13  C   UNL     1       0.791  -0.482  -2.626  1.00  0.00     0.009 C 
BRANCH  12  14
ATOM     14  C   UNL     1       1.954  -0.697  -0.406  1.00  0.00     0.005 C 
BRANCH  14  15
ATOM     15  C   UNL     1       2.327  -0.076   0.948  1.00  0.00    -0.003 C 
ATOM     16  C   UNL     1       3.608  -0.691   1.506  1.00  0.00     0.004 C 
ENDBRANCH  14  15
ENDBRANCH  12  14
ENDBRANCH   1  12
BRANCH   1  17
ATOM     17  C   UNL     1      -1.697   0.587  -1.430  1.00  0.00     0.054 C 
BRANCH  17  18
ATOM     18  C   UNL     1      -3.039   0.747  -0.751  1.00  0.00    -0.033 C 
ATOM     19  C   UNL     1      -3.541   1.949  -0.451  1.00  0.00     0.004 C 
ENDBRANCH  17  18
ENDBRANCH   1  17
TORSDOF 5
