REMARK SMILES Cc1cc(C(C)(C)C)c(O)c(C)c1CC1=NCCN1
REMARK SMILES IDX 1 1 2 2 3 3 4 4 9 5 11 6 12 7 13 8 14 9 15 10 16 11 19 12
REMARK SMILES IDX 17 13 18 14 5 16 6 17 7 18 8 19 10 20
REMARK H PARENT 19 15 10 21
REMARK Flexibility Score: inf
ROOT
ATOM      1  C   UNL     1       0.804  -1.447  -2.233  1.00  0.00     0.044 C 
ATOM      2  C   UNL     1       0.156  -0.544  -1.209  1.00  0.00    -0.047 A 
ATOM      3  C   UNL     1      -1.156  -0.823  -0.813  1.00  0.00     0.011 A 
ATOM      4  C   UNL     1      -1.853  -0.013   0.108  1.00  0.00    -0.000 A 
ATOM      5  C   UNL     1      -1.168   1.108   0.649  1.00  0.00     0.122 A 
ATOM      6  C   UNL     1       0.191   1.358   0.324  1.00  0.00    -0.005 A 
ATOM      7  C   UNL     1       0.933   2.468   1.042  1.00  0.00     0.049 C 
ATOM      8  C   UNL     1       0.830   0.580  -0.679  1.00  0.00    -0.031 A 
ENDROOT
BRANCH   8   9
ATOM      9  C   UNL     1       2.227   0.927  -1.173  1.00  0.00     0.110 C 
BRANCH   9  10
ATOM     10  C   UNL     1       3.292   0.145  -0.457  1.00  0.00     0.101 C 
ATOM     11  N   UNL     1       4.433  -0.107  -0.997  1.00  0.00    -0.271 NA
ATOM     12  N   UNL     1       3.185  -0.308   0.880  1.00  0.00    -0.372 N 
ATOM     13  C   UNL     1       5.277  -0.831  -0.054  1.00  0.00     0.165 C 
ATOM     14  C   UNL     1       4.432  -0.960   1.223  1.00  0.00     0.137 C 
ATOM     15  H   UNL     1       2.360  -0.206   1.512  1.00  0.00     0.161 HD
ENDBRANCH   9  10
ENDBRANCH   8   9
BRANCH   4  16
ATOM     16  C   UNL     1      -3.326  -0.327   0.504  1.00  0.00    -0.010 C 
ATOM     17  C   UNL     1      -3.872  -1.623  -0.153  1.00  0.00     0.016 C 
ATOM     18  C   UNL     1      -3.438  -0.528   2.034  1.00  0.00     0.016 C 
ATOM     19  C   UNL     1      -4.254   0.825   0.054  1.00  0.00     0.016 C 
ENDBRANCH   4  16
BRANCH   5  20
ATOM     20  O   UNL     1      -1.856   1.980   1.499  1.00  0.00    -0.507 OA
ATOM     21  H   UNL     1      -1.507   2.882   1.796  1.00  0.00     0.293 HD
ENDBRANCH   5  20
TORSDOF 4
