REMARK SMILES CC[C@H]1OC(=O)[C@H](C)[C@@H](O[C@H]2C[C@@](C)(OC)[C@@H](O)[C@H](C)O2)[C@H](C)[C@@H](O[C@@H]2O[C@H](C)C[C@H](N(C)C)[C@H]2O)[C@](C)(O)C[C@@H](C)CN(C)[C@H](C)[C@@H](O)[C@]1(C)O
REMARK SMILES IDX 5 1 6 2 4 3 3 4 2 5 1 6 50 7 51 8 48 9 46 10 47 11 44 12
REMARK SMILES IDX 45 13 43 14 49 16 52 18 7 20 8 21 9 22 10 23 11 24 12 25
REMARK SMILES IDX 21 26 13 27 19 28 14 29 17 30 20 31 15 32 16 33 18 34 22 36
REMARK SMILES IDX 23 37 24 38 25 39 26 40 27 41 35 42 28 43 31 44 29 45 30 46
REMARK SMILES IDX 36 47 32 49 33 50 34 51 37 52 38 53 39 54 40 56 41 57 42 58
REMARK H PARENT 49 17 52 19 18 35 36 48 39 55
REMARK Flexibility Score: 60.00
ROOT
ATOM      1  C   UNL     1      -3.229  -0.250  -1.740  1.00  0.00     0.311 C 
ATOM      2  O   UNL     1      -3.740  -0.497  -0.612  1.00  0.00    -0.252 OA
ENDROOT
BRANCH   1   3
ATOM      3  O   UNL     1      -3.930   0.567  -2.640  1.00  0.00    -0.459 OA
BRANCH   3   4
ATOM      4  C   UNL     1      -3.748   1.992  -2.766  1.00  0.00     0.210 C 
BRANCH   4   5
ATOM      5  C   UNL     1      -2.395   2.279  -3.455  1.00  0.00     0.045 C 
ATOM      6  C   UNL     1      -2.307   1.613  -4.833  1.00  0.00     0.008 C 
ENDBRANCH   4   5
BRANCH   4   7
ATOM      7  C   UNL     1      -3.998   2.727  -1.386  1.00  0.00     0.126 C 
ATOM      8  C   UNL     1      -5.453   2.390  -0.953  1.00  0.00     0.049 C 
BRANCH   7   9
ATOM      9  C   UNL     1      -3.877   4.305  -1.420  1.00  0.00     0.166 C 
BRANCH   9  10
ATOM     10  C   UNL     1      -2.440   4.895  -1.197  1.00  0.00     0.085 C 
ATOM     11  C   UNL     1      -2.393   6.407  -1.512  1.00  0.00     0.027 C 
BRANCH  10  12
ATOM     12  N   UNL     1      -1.924   4.578   0.170  1.00  0.00    -0.301 NA
ATOM     13  C   UNL     1      -2.474   5.436   1.251  1.00  0.00     0.105 C 
BRANCH  12  14
ATOM     14  C   UNL     1      -0.442   4.513   0.240  1.00  0.00     0.088 CG0
ATOM     15  G   UNL     1       0.008   3.402   1.228  1.00  0.00     0.000 G0
ENDBRANCH  12  14
ENDBRANCH  10  12
ENDBRANCH   9  10
BRANCH   9  16
ATOM     16  O   UNL     1      -4.510   4.841  -2.558  1.00  0.00    -0.388 OA
ATOM     17  H   UNL     1      -3.916   4.716  -3.338  1.00  0.00     0.211 HD
ENDBRANCH   9  16
ENDBRANCH   7   9
BRANCH   7  18
ATOM     18  O   UNL     1      -3.101   2.205  -0.434  1.00  0.00    -0.384 OA
ATOM     19  H   UNL     1      -3.400   2.491   0.468  1.00  0.00     0.211 HD
ENDBRANCH   7  18
ENDBRANCH   4   7
ENDBRANCH   3   4
ENDBRANCH   1   3
BRANCH   1  20
ATOM     20  C   UNL     1      -1.954  -0.949  -2.160  1.00  0.00     0.125 C 
ATOM     21  C   UNL     1      -2.280  -2.359  -2.680  1.00  0.00     0.023 C 
BRANCH  20  22
ATOM     22  C   UNL     1      -0.839  -0.916  -1.045  1.00  0.00     0.141 C 
BRANCH  22  23
ATOM     23  O   UNL     1      -0.569  -2.224  -0.551  1.00  0.00    -0.348 OA
BRANCH  23  24
ATOM     24  C   UNL     1      -0.932  -2.436   0.810  1.00  0.00     0.253 C 
ATOM     25  C   UNL     1      -2.265  -3.211   0.855  1.00  0.00     0.100 C 
ATOM     26  O   UNL     1       0.099  -3.209   1.394  1.00  0.00    -0.347 OA
ATOM     27  C   UNL     1      -2.692  -3.616   2.304  1.00  0.00     0.098 C 
ATOM     28  C   UNL     1      -0.135  -3.521   2.761  1.00  0.00     0.150 C 
ATOM     29  C   UNL     1      -3.159  -2.382   3.135  1.00  0.00     0.045 C 
ATOM     30  C   UNL     1      -1.461  -4.293   2.978  1.00  0.00     0.175 C 
ATOM     31  C   UNL     1       0.081  -2.317   3.698  1.00  0.00     0.041 C 
BRANCH  27  32
ATOM     32  O   UNL     1      -3.736  -4.598   2.318  1.00  0.00    -0.376 OA
ATOM     33  C   UNL     1      -4.787  -4.350   1.395  1.00  0.00     0.195 C 
ENDBRANCH  27  32
BRANCH  30  34
ATOM     34  O   UNL     1      -1.288  -5.580   2.427  1.00  0.00    -0.387 OA
ATOM     35  H   UNL     1      -1.777  -6.224   3.005  1.00  0.00     0.211 HD
ENDBRANCH  30  34
ENDBRANCH  23  24
ENDBRANCH  22  23
BRANCH  22  36
ATOM     36  C   UNL     1       0.497  -0.292  -1.584  1.00  0.00     0.048 C 
ATOM     37  C   UNL     1       1.103  -1.164  -2.704  1.00  0.00     0.013 C 
BRANCH  36  38
ATOM     38  C   UNL     1       1.550   0.038  -0.447  1.00  0.00     0.158 C 
BRANCH  38  39
ATOM     39  O   UNL     1       2.849  -0.346  -0.901  1.00  0.00    -0.343 OA
BRANCH  39  40
ATOM     40  C   UNL     1       3.731  -0.791   0.119  1.00  0.00     0.280 C 
ATOM     41  O   UNL     1       4.968  -0.116  -0.073  1.00  0.00    -0.347 OA
ATOM     42  C   UNL     1       3.960  -2.308  -0.042  1.00  0.00     0.188 C 
ATOM     43  C   UNL     1       5.902  -0.444   0.944  1.00  0.00     0.120 C 
ATOM     44  C   UNL     1       4.989  -2.782   1.012  1.00  0.00     0.092 C 
ATOM     45  C   UNL     1       7.147   0.422   0.756  1.00  0.00     0.039 C 
ATOM     46  C   UNL     1       6.275  -1.939   0.880  1.00  0.00     0.054 C 
BRANCH  42  47
ATOM     47  O   UNL     1       2.758  -3.015   0.093  1.00  0.00    -0.386 OA
ATOM     48  H   UNL     1       2.432  -2.870   1.014  1.00  0.00     0.211 HD
ENDBRANCH  42  47
BRANCH  44  49
ATOM     49  N   UNL     1       5.201  -4.255   0.979  1.00  0.00    -0.304 NA
ATOM     50  C   UNL     1       5.711  -4.786  -0.300  1.00  0.00     0.105 C 
ATOM     51  C   UNL     1       6.037  -4.712   2.100  1.00  0.00     0.105 C 
ENDBRANCH  44  49
ENDBRANCH  39  40
ENDBRANCH  38  39
BRANCH  38  52
ATOM     52  C   UNL     1       1.578   1.567   0.001  1.00  0.00     0.089 C 
ATOM     53  C   UNL     1       2.002   2.485  -1.178  1.00  0.00     0.045 C 
BRANCH  52  54
ATOM     54  O   UNL     1       2.505   1.679   1.052  1.00  0.00    -0.387 OA
ATOM     55  H   UNL     1       3.407   1.880   0.689  1.00  0.00     0.211 HD
ENDBRANCH  52  54
BRANCH  52  56
ATOM     56  C   UNL     1       0.180   2.002   0.551  1.00  0.00     0.042 C 
BRANCH  56  57
ATOM     57  C   UNL     1       0.008   3.402   1.228  1.00  0.00     0.003 CG0
ATOM     58  C   UNL     1       1.189   3.878   2.087  1.00  0.00     0.009 C 
ATOM     59  G   UNL     1      -0.442   4.513   0.240  1.00  0.00     0.000 G0
ENDBRANCH  56  57
ENDBRANCH  52  56
ENDBRANCH  38  52
ENDBRANCH  36  38
ENDBRANCH  22  36
ENDBRANCH  20  22
ENDBRANCH   1  20
TORSDOF 12
