REMARK SMILES O=C1Cc2cc(CCN3CCN(c4nsc5ccccc45)CC3)c(Cl)cc2N1
REMARK SMILES IDX 8 1 7 2 6 3 25 4 24 5 26 6 5 7 27 8 4 9 28 10 3 11 2 12 1 14
REMARK SMILES IDX 9 15 10 16 23 17 11 18 22 19 12 20 13 21 14 22 21 23 15 24
REMARK SMILES IDX 16 25 20 26 17 27 19 28 18 29
REMARK H PARENT 28 13
REMARK Flexibility Score: inf
ROOT
ATOM      1  C   UNL     1       0.889  -0.228   1.062  1.00  0.00     0.089 C 
ENDROOT
BRANCH   1   2
ATOM      2  C   UNL     1       1.954   0.593   1.802  1.00  0.00     0.052 C 
BRANCH   2   3
ATOM      3  C   UNL     1       3.219   0.685   0.984  1.00  0.00    -0.028 A 
ATOM      4  Cl  UNL     1       2.121   2.857  -0.372  1.00  0.00    -0.084 Cl
ATOM      5  C   UNL     1       3.376   1.671  -0.031  1.00  0.00     0.046 A 
ATOM      6  C   UNL     1       4.553   1.713  -0.798  1.00  0.00     0.047 A 
ATOM      7  C   UNL     1       4.243  -0.264   1.196  1.00  0.00     0.011 A 
ATOM      8  C   UNL     1       5.546   0.770  -0.550  1.00  0.00     0.046 A 
ATOM      9  C   UNL     1       5.397  -0.197   0.419  1.00  0.00    -0.015 A 
ATOM     10  N   UNL     1       6.783   0.655  -1.226  1.00  0.00    -0.325 N 
ATOM     11  C   UNL     1       6.597  -1.087   0.468  1.00  0.00     0.138 C 
ATOM     12  C   UNL     1       7.422  -0.462  -0.618  1.00  0.00     0.228 C 
ATOM     13  H   UNL     1       7.145   1.252  -2.003  1.00  0.00     0.169 HD
ATOM     14  O   UNL     1       8.560  -0.872  -0.966  1.00  0.00    -0.274 OA
ENDBRANCH   2   3
ENDBRANCH   1   2
BRANCH   1  15
ATOM     15  N   UNL     1      -0.347  -0.330   1.870  1.00  0.00    -0.299 NA
ATOM     16  C   UNL     1      -1.163  -1.503   1.474  1.00  0.00     0.106 C 
ATOM     17  C   UNL     1      -1.100   0.958   1.912  1.00  0.00     0.106 C 
ATOM     18  C   UNL     1      -1.998  -1.224   0.217  1.00  0.00     0.133 C 
ATOM     19  C   UNL     1      -2.593   0.821   1.583  1.00  0.00     0.133 C 
ATOM     20  N   UNL     1      -2.752   0.023   0.367  1.00  0.00    -0.353 N 
BRANCH  20  21
ATOM     21  C   UNL     1      -3.449   0.569  -0.760  1.00  0.00     0.150 A 
ATOM     22  N   UNL     1      -3.007   1.698  -1.380  1.00  0.00    -0.174 NA
ATOM     23  C   UNL     1      -4.617  -0.013  -1.307  1.00  0.00     0.037 A 
ATOM     24  S   UNL     1      -4.072   1.970  -2.635  1.00  0.00    -0.034 S 
ATOM     25  C   UNL     1      -5.095   0.680  -2.407  1.00  0.00     0.057 A 
ATOM     26  C   UNL     1      -5.315  -1.134  -0.841  1.00  0.00     0.013 A 
ATOM     27  C   UNL     1      -6.239   0.303  -3.101  1.00  0.00     0.021 A 
ATOM     28  C   UNL     1      -6.474  -1.544  -1.524  1.00  0.00     0.001 A 
ATOM     29  C   UNL     1      -6.932  -0.831  -2.651  1.00  0.00     0.002 A 
ENDBRANCH  20  21
ENDBRANCH   1  15
TORSDOF 4
