REMARK SMILES CO[C@]12CC[C@@]3(C[C@@H]1[C@](C)(O)C(C)(C)C)[C@H]1Cc4ccc(O)c5c4[C@@]3(CCN1CC1CC1)[C@H]2O5
REMARK SMILES IDX 3 1 4 2 5 3 6 4 7 5 8 6 16 7 17 8 18 9 24 10 23 11 34 12
REMARK SMILES IDX 33 13 25 14 26 15 27 16 28 17 21 18 20 19 19 20 2 21 1 22
REMARK SMILES IDX 9 23 10 24 11 25 12 27 13 28 14 29 15 30 22 31 29 33 30 34
REMARK SMILES IDX 31 35 32 36
REMARK H PARENT 11 26 22 32
REMARK Flexibility Score: inf
ROOT
ATOM      1  C   UNL     1      -1.733  -1.560  -0.226  1.00  0.00     0.111 C 
ATOM      2  C   UNL     1      -1.482  -1.936   1.274  1.00  0.00     0.040 C 
ATOM      3  C   UNL     1      -0.229  -1.227   1.841  1.00  0.00     0.013 C 
ATOM      4  C   UNL     1       0.477  -0.386   0.729  1.00  0.00     0.000 C 
ATOM      5  C   UNL     1      -0.566   0.693   0.332  1.00  0.00     0.019 C 
ATOM      6  C   UNL     1      -1.790   0.034  -0.393  1.00  0.00     0.058 C 
ATOM      7  C   UNL     1       1.845   0.204   1.203  1.00  0.00     0.068 C 
ATOM      8  C   UNL     1       2.877  -0.920   1.616  1.00  0.00     0.055 C 
ATOM      9  C   UNL     1       2.693  -2.243   0.887  1.00  0.00    -0.039 A 
ATOM     10  C   UNL     1       1.679  -2.370  -0.064  1.00  0.00     0.012 A 
ATOM     11  C   UNL     1       1.101  -3.574  -0.326  1.00  0.00     0.165 A 
ATOM     12  O   UNL     1      -0.142  -3.414  -0.907  1.00  0.00    -0.482 OA
ATOM     13  C   UNL     1      -0.467  -2.021  -1.052  1.00  0.00     0.217 C 
ATOM     14  C   UNL     1       0.798  -1.266  -0.514  1.00  0.00     0.048 C 
ATOM     15  C   UNL     1       1.504  -0.453  -1.633  1.00  0.00     0.032 C 
ATOM     16  C   UNL     1       2.711   0.345  -1.110  1.00  0.00     0.086 C 
ATOM     17  N   UNL     1       2.378   1.085   0.129  1.00  0.00    -0.299 NA
ATOM     18  C   UNL     1       1.686  -4.766   0.108  1.00  0.00     0.158 A 
ATOM     19  C   UNL     1       2.841  -4.682   0.910  1.00  0.00     0.050 A 
ATOM     20  C   UNL     1       3.320  -3.422   1.335  1.00  0.00     0.008 A 
ENDROOT
BRANCH   1  21
ATOM     21  O   UNL     1      -2.964  -2.104  -0.701  1.00  0.00    -0.374 OA
ATOM     22  C   UNL     1      -2.958  -3.495  -0.944  1.00  0.00     0.195 C 
ENDBRANCH   1  21
BRANCH   6  23
ATOM     23  C   UNL     1      -3.196   0.762  -0.176  1.00  0.00     0.072 C 
ATOM     24  C   UNL     1      -3.688   0.530   1.285  1.00  0.00     0.043 C 
BRANCH  23  25
ATOM     25  O   UNL     1      -4.096   0.126  -1.065  1.00  0.00    -0.389 OA
ATOM     26  H   UNL     1      -5.023   0.188  -0.712  1.00  0.00     0.211 HD
ENDBRANCH  23  25
BRANCH  23  27
ATOM     27  C   UNL     1      -3.206   2.329  -0.565  1.00  0.00    -0.009 C 
ATOM     28  C   UNL     1      -2.502   3.247   0.473  1.00  0.00     0.014 C 
ATOM     29  C   UNL     1      -2.542   2.571  -1.945  1.00  0.00     0.014 C 
ATOM     30  C   UNL     1      -4.667   2.856  -0.700  1.00  0.00     0.014 C 
ENDBRANCH  23  27
ENDBRANCH   6  23
BRANCH  18  31
ATOM     31  O   UNL     1       1.131  -6.004  -0.203  1.00  0.00    -0.504 OA
ATOM     32  H   UNL     1       0.293  -6.080  -0.768  1.00  0.00     0.293 HD
ENDBRANCH  18  31
BRANCH  17  33
ATOM     33  C   UNL     1       3.497   1.939   0.578  1.00  0.00     0.088 C 
BRANCH  33  34
ATOM     34  C   UNL     1       3.447   3.280  -0.165  1.00  0.00     0.003 C 
ATOM     35  C   UNL     1       4.683   4.147   0.025  1.00  0.00     0.005 C 
ATOM     36  C   UNL     1       4.437   3.457  -1.307  1.00  0.00     0.005 C 
ENDBRANCH  33  34
ENDBRANCH  17  33
TORSDOF 7
