REMARK SMILES CC[C@H](C)C(=O)O[C@H]1C[C@@H](C)C=C2C=C[C@H](C)[C@H](CC[C@@H]3C[C@@H](O)CC(=O)O3)[C@H]21
REMARK SMILES IDX 29 1 8 2 9 3 10 4 11 5 12 6 13 7 14 8 15 9 16 10 17 11 18 12
REMARK SMILES IDX 7 13 5 14 6 15 3 16 4 17 2 18 1 19 19 20 20 21 21 22 22 23
REMARK SMILES IDX 28 24 23 25 26 26 25 27 27 28 24 29
REMARK H PARENT 24 30
REMARK Flexibility Score: inf
ROOT
ATOM      1  C   UNL     1      -0.489  -2.114   1.039  1.00  0.00     0.063 C 
ATOM      2  C   UNL     1      -1.785  -1.276   0.935  1.00  0.00     0.185 C 
ATOM      3  C   UNL     1      -3.004  -2.214   0.953  1.00  0.00     0.053 C 
ATOM      4  C   UNL     1      -2.979  -3.251  -0.189  1.00  0.00     0.012 C 
ATOM      5  C   UNL     1      -3.607  -2.705  -1.480  1.00  0.00     0.012 C 
ATOM      6  C   UNL     1      -1.594  -3.778  -0.480  1.00  0.00    -0.020 C 
ATOM      7  C   UNL     1      -0.464  -3.221  -0.010  1.00  0.00    -0.045 C 
ATOM      8  C   UNL     1       0.835  -3.760  -0.473  1.00  0.00    -0.000 C 
ATOM      9  C   UNL     1       1.995  -3.253  -0.053  1.00  0.00    -0.023 C 
ATOM     10  C   UNL     1       2.070  -2.184   1.006  1.00  0.00     0.012 C 
ATOM     11  C   UNL     1       2.296  -2.855   2.371  1.00  0.00     0.012 C 
ATOM     12  C   UNL     1       0.814  -1.255   0.951  1.00  0.00     0.007 C 
ENDROOT
BRANCH   2  13
ATOM     13  O   UNL     1      -1.760  -0.476  -0.248  1.00  0.00    -0.461 OA
BRANCH  13  14
ATOM     14  C   UNL     1      -2.656   0.569  -0.498  1.00  0.00     0.308 C 
ATOM     15  O   UNL     1      -3.546   0.869   0.343  1.00  0.00    -0.252 OA
BRANCH  14  16
ATOM     16  C   UNL     1      -2.533   1.342  -1.784  1.00  0.00     0.096 C 
ATOM     17  C   UNL     1      -3.903   1.586  -2.432  1.00  0.00     0.020 C 
BRANCH  16  18
ATOM     18  C   UNL     1      -1.718   2.639  -1.591  1.00  0.00     0.011 C 
ATOM     19  C   UNL     1      -2.362   3.657  -0.645  1.00  0.00     0.005 C 
ENDBRANCH  16  18
ENDBRANCH  14  16
ENDBRANCH  13  14
ENDBRANCH   2  13
BRANCH  12  20
ATOM     20  C   UNL     1       0.839  -0.104   2.002  1.00  0.00     0.009 C 
BRANCH  20  21
ATOM     21  C   UNL     1       2.161   0.689   2.100  1.00  0.00     0.046 C 
BRANCH  21  22
ATOM     22  C   UNL     1       2.516   1.453   0.813  1.00  0.00     0.179 C 
ATOM     23  C   UNL     1       3.935   2.043   0.896  1.00  0.00     0.077 C 
ATOM     24  O   UNL     1       1.594   2.521   0.610  1.00  0.00    -0.462 OA
ATOM     25  C   UNL     1       4.313   2.847  -0.378  1.00  0.00     0.129 C 
ATOM     26  C   UNL     1       1.873   3.509  -0.334  1.00  0.00     0.308 C 
ATOM     27  C   UNL     1       3.098   3.380  -1.186  1.00  0.00     0.154 C 
ATOM     28  O   UNL     1       1.082   4.476  -0.494  1.00  0.00    -0.252 OA
BRANCH  25  29
ATOM     29  O   UNL     1       5.114   2.043  -1.206  1.00  0.00    -0.392 OA
ATOM     30  H   UNL     1       5.531   2.646  -1.875  1.00  0.00     0.210 HD
ENDBRANCH  25  29
ENDBRANCH  21  22
ENDBRANCH  20  21
ENDBRANCH  12  20
TORSDOF 8
