REMARK SMILES CCOC(=O)C(C)(C)Oc1ccc(Cl)cc1
REMARK SMILES IDX 6 1 7 2 8 3 4 4 5 5 3 6 2 7 1 8 9 9 10 10 11 11 16 12 12 13
REMARK SMILES IDX 15 14 13 15 14 16
REMARK H PARENT
REMARK Flexibility Score: inf
ROOT
ATOM      1  C   UNL     1       0.454  -0.076   0.997  1.00  0.00     0.200 C 
ATOM      2  C   UNL     1       0.431   1.345   1.596  1.00  0.00     0.069 C 
ATOM      3  C   UNL     1       0.009  -1.143   2.017  1.00  0.00     0.069 C 
ENDROOT
BRANCH   1   4
ATOM      4  C   UNL     1       1.880  -0.385   0.599  1.00  0.00     0.349 C 
ATOM      5  O   UNL     1       2.795  -0.386   1.470  1.00  0.00    -0.247 OA
BRANCH   4   6
ATOM      6  O   UNL     1       2.181  -0.678  -0.738  1.00  0.00    -0.463 OA
BRANCH   6   7
ATOM      7  C   UNL     1       3.504  -0.918  -1.212  1.00  0.00     0.229 C 
ATOM      8  C   UNL     1       4.279   0.389  -1.326  1.00  0.00     0.049 C 
ENDBRANCH   6   7
ENDBRANCH   4   6
ENDBRANCH   1   4
BRANCH   1   9
ATOM      9  O   UNL     1      -0.339  -0.144  -0.201  1.00  0.00    -0.476 OA
BRANCH   9  10
ATOM     10  C   UNL     1      -1.719   0.058  -0.406  1.00  0.00     0.121 A 
ATOM     11  C   UNL     1      -2.642   0.385   0.610  1.00  0.00     0.048 A 
ATOM     12  C   UNL     1      -2.189  -0.082  -1.720  1.00  0.00     0.048 A 
ATOM     13  C   UNL     1      -3.996   0.565   0.304  1.00  0.00     0.024 A 
ATOM     14  C   UNL     1      -3.541   0.097  -2.023  1.00  0.00     0.024 A 
ATOM     15  C   UNL     1      -4.446   0.421  -1.011  1.00  0.00     0.041 A 
ATOM     16  Cl  UNL     1      -6.144   0.648  -1.388  1.00  0.00    -0.084 Cl
ENDBRANCH   9  10
ENDBRANCH   1   9
TORSDOF 5
