REMARK SMILES CN1C(=O)CN=C(c2ccccc2)c2cc(Cl)ccc21
REMARK SMILES IDX 20 1 14 2 15 3 16 4 17 5 18 6 19 7 2 8 1 9 3 10 4 11 7 13
REMARK SMILES IDX 6 14 8 15 9 16 13 17 10 18 12 19 11 20 5 21
REMARK H PARENT
REMARK Flexibility Score: 90.00
ROOT
ATOM      1  C   UNL     1      -1.795  -0.365  -0.244  1.00  0.00     0.053 A 
ATOM      2  C   UNL     1      -0.464  -0.739   0.078  1.00  0.00     0.026 A 
ATOM      3  C   UNL     1      -0.005  -2.020  -0.282  1.00  0.00     0.033 A 
ATOM      4  C   UNL     1      -0.837  -2.913  -0.960  1.00  0.00     0.041 A 
ATOM      5  Cl  UNL     1      -0.243  -4.503  -1.403  1.00  0.00    -0.084 Cl
ATOM      6  C   UNL     1      -2.142  -2.542  -1.283  1.00  0.00     0.023 A 
ATOM      7  C   UNL     1      -2.618  -1.280  -0.927  1.00  0.00     0.028 A 
ENDROOT
BRANCH   1   8
ATOM      8  N   UNL     1      -2.319   0.935   0.108  1.00  0.00    -0.313 N 
ATOM      9  C   UNL     1      -3.130   1.678  -0.862  1.00  0.00     0.153 C 
BRANCH   8  10
ATOM     10  C   UNL     1      -2.216   1.423   1.460  1.00  0.00     0.248 CG0
ATOM     11  O   UNL     1      -2.934   2.385   1.845  1.00  0.00    -0.272 OA
ATOM     12  G   UNL     1      -1.247   0.807   2.419  1.00  0.00     0.000 G0
ENDBRANCH   8  10
ENDBRANCH   1   8
BRANCH   2  13
ATOM     13  C   UNL     1       0.470   0.185   0.784  1.00  0.00     0.075 C 
ATOM     14  N   UNL     1       0.091   0.848   1.841  1.00  0.00    -0.274 NA
BRANCH  13  15
ATOM     15  C   UNL     1       1.872   0.343   0.315  1.00  0.00     0.000 A 
ATOM     16  C   UNL     1       2.896   0.670   1.225  1.00  0.00     0.010 A 
ATOM     17  C   UNL     1       2.196   0.195  -1.048  1.00  0.00     0.010 A 
ATOM     18  C   UNL     1       4.213   0.827   0.783  1.00  0.00     0.001 A 
ATOM     19  C   UNL     1       3.515   0.354  -1.484  1.00  0.00     0.001 A 
ATOM     20  C   UNL     1       4.522   0.667  -0.569  1.00  0.00     0.000 A 
ENDBRANCH  13  15
BRANCH  14  21
ATOM     21  C   UNL     1      -1.247   0.807   2.419  1.00  0.00     0.243 CG0
ATOM     22  G   UNL     1      -2.216   1.423   1.460  1.00  0.00     0.000 G0
ENDBRANCH  14  21
ENDBRANCH   2  13
TORSDOF 1
