REMARK SMILES CNCCCC12CCC(c3ccccc31)c1ccccc12
REMARK SMILES IDX 4 1 3 2 2 3 1 4 5 6 6 7 7 8 15 9 21 10 8 11 10 12 14 13
REMARK SMILES IDX 16 14 20 15 9 16 11 17 13 18 17 19 19 20 12 21 18 22
REMARK H PARENT 2 5
REMARK Flexibility Score: inf
ROOT
ATOM      1  C   UNL     1       2.507   0.442  -0.124  1.00  0.00     0.016 C 
ENDROOT
BRANCH   1   2
ATOM      2  C   UNL     1       3.078   1.228   1.074  1.00  0.00     0.080 C 
BRANCH   2   3
ATOM      3  N   UNL     1       4.246   0.562   1.674  1.00  0.00    -0.320 NA
ATOM      4  C   UNL     1       3.852  -0.489   2.616  1.00  0.00     0.101 C 
ATOM      5  H   UNL     1       4.842   0.138   0.924  1.00  0.00     0.122 HD
ENDBRANCH   2   3
ENDBRANCH   1   2
BRANCH   1   6
ATOM      6  C   UNL     1       1.232   1.101  -0.704  1.00  0.00     0.018 C 
BRANCH   6   7
ATOM      7  C   UNL     1      -0.107   0.416  -0.296  1.00  0.00     0.021 C 
ATOM      8  C   UNL     1      -0.269   0.321   1.263  1.00  0.00     0.017 C 
ATOM      9  C   UNL     1      -1.355   1.178  -0.783  1.00  0.00    -0.034 A 
ATOM     10  C   UNL     1      -0.300  -1.017  -0.828  1.00  0.00    -0.034 A 
ATOM     11  C   UNL     1      -1.638  -0.343   1.651  1.00  0.00     0.014 C 
ATOM     12  C   UNL     1      -2.578   0.570  -0.416  1.00  0.00    -0.036 A 
ATOM     13  C   UNL     1      -1.374   2.357  -1.548  1.00  0.00     0.005 A 
ATOM     14  C   UNL     1      -1.528  -1.606  -0.450  1.00  0.00    -0.036 A 
ATOM     15  C   UNL     1       0.566  -1.719  -1.685  1.00  0.00     0.005 A 
ATOM     16  C   UNL     1      -2.438  -0.716   0.377  1.00  0.00     0.050 C 
ATOM     17  C   UNL     1      -3.800   1.136  -0.789  1.00  0.00     0.004 A 
ATOM     18  C   UNL     1      -2.601   2.921  -1.919  1.00  0.00     0.000 A 
ATOM     19  C   UNL     1      -1.867  -2.893  -0.876  1.00  0.00     0.004 A 
ATOM     20  C   UNL     1       0.226  -3.011  -2.105  1.00  0.00     0.000 A 
ATOM     21  C   UNL     1      -3.807   2.316  -1.540  1.00  0.00     0.000 A 
ATOM     22  C   UNL     1      -0.981  -3.598  -1.698  1.00  0.00     0.000 A 
ENDBRANCH   6   7
ENDBRANCH   1   6
TORSDOF 4
