REMARK SMILES COc1cc(N)c(Cl)cc1C(=O)N[C@@H]1CCN(CCCOc2ccc(F)cc2)C[C@@H]1OC
REMARK SMILES IDX 18 1 17 2 30 3 29 4 14 5 15 6 16 7 31 8 32 9 13 10 11 11
REMARK SMILES IDX 12 13 10 14 9 15 3 16 7 17 4 18 8 19 5 20 2 21 1 22 6 23
REMARK SMILES IDX 19 26 20 27 21 28 22 29 23 30 28 31 24 32 27 33 25 34 26 35
REMARK H PARENT 13 12 6 24 6 25
REMARK Flexibility Score: inf
ROOT
ATOM      1  C   UNL     1      -1.951  -0.317  -1.594  1.00  0.00     0.088 C 
ENDROOT
BRANCH   1   2
ATOM      2  N   UNL     1      -1.940  -1.214  -0.416  1.00  0.00    -0.300 NA
ATOM      3  C   UNL     1       0.143  -0.477   0.797  1.00  0.00     0.154 C 
ATOM      4  C   UNL     1      -1.397  -0.585   0.807  1.00  0.00     0.118 C 
ATOM      5  C   UNL     1       0.760  -1.870   0.569  1.00  0.00     0.113 C 
ATOM      6  C   UNL     1       0.196  -2.504  -0.712  1.00  0.00     0.043 C 
ATOM      7  C   UNL     1      -1.341  -2.540  -0.682  1.00  0.00     0.087 C 
BRANCH   3   8
ATOM      8  O   UNL     1       0.575   0.405  -0.227  1.00  0.00    -0.378 OA
ATOM      9  C   UNL     1       0.796   1.699   0.287  1.00  0.00     0.195 C 
ENDBRANCH   3   8
BRANCH   5  10
ATOM     10  N   UNL     1       2.222  -1.770   0.488  1.00  0.00    -0.346 N 
ATOM     11  C   UNL     1       3.031  -1.436   1.626  1.00  0.00     0.255 C 
ATOM     12  H   UNL     1       2.701  -1.980  -0.417  1.00  0.00     0.164 HD
ATOM     13  O   UNL     1       2.552  -1.540   2.789  1.00  0.00    -0.269 OA
BRANCH  11  14
ATOM     14  C   UNL     1       4.436  -1.001   1.454  1.00  0.00     0.083 A 
ATOM     15  C   UNL     1       5.395  -1.397   2.400  1.00  0.00     0.040 A 
ATOM     16  C   UNL     1       4.822  -0.175   0.377  1.00  0.00     0.133 A 
ATOM     17  C   UNL     1       6.733  -1.015   2.269  1.00  0.00     0.065 A 
ATOM     18  C   UNL     1       6.174   0.197   0.244  1.00  0.00     0.074 A 
ATOM     19  Cl  UNL     1       7.881  -1.561   3.487  1.00  0.00    -0.082 Cl
ATOM     20  C   UNL     1       7.132  -0.220   1.179  1.00  0.00     0.054 A 
BRANCH  16  21
ATOM     21  O   UNL     1       3.843   0.281  -0.523  1.00  0.00    -0.496 OA
ATOM     22  C   UNL     1       4.091   1.140  -1.630  1.00  0.00     0.278 C 
ENDBRANCH  16  21
BRANCH  20  23
ATOM     23  N   UNL     1       8.499   0.176   1.007  1.00  0.00    -0.397 N 
ATOM     24  H   UNL     1       9.243  -0.097   1.686  1.00  0.00     0.156 HD
ATOM     25  H   UNL     1       8.787   0.750   0.183  1.00  0.00     0.156 HD
ENDBRANCH  20  23
ENDBRANCH  11  14
ENDBRANCH   5  10
ENDBRANCH   1   2
BRANCH   1  26
ATOM     26  C   UNL     1      -3.230  -0.520  -2.418  1.00  0.00     0.057 C 
BRANCH  26  27
ATOM     27  C   UNL     1      -4.502  -0.263  -1.605  1.00  0.00     0.231 C 
BRANCH  27  28
ATOM     28  O   UNL     1      -4.504   1.073  -1.105  1.00  0.00    -0.494 OA
BRANCH  28  29
ATOM     29  C   UNL     1      -5.514   1.614  -0.297  1.00  0.00     0.119 A 
ATOM     30  C   UNL     1      -6.655   0.877   0.082  1.00  0.00     0.049 A 
ATOM     31  C   UNL     1      -5.377   2.936   0.146  1.00  0.00     0.049 A 
ATOM     32  C   UNL     1      -7.634   1.463   0.890  1.00  0.00     0.043 A 
ATOM     33  C   UNL     1      -6.358   3.519   0.955  1.00  0.00     0.043 A 
ATOM     34  C   UNL     1      -7.487   2.783   1.327  1.00  0.00     0.123 A 
ATOM     35  F   UNL     1      -8.438   3.349   2.110  1.00  0.00    -0.207 F 
ENDBRANCH  28  29
ENDBRANCH  27  28
ENDBRANCH  26  27
ENDBRANCH   1  26
TORSDOF 10
