REMARK SMILES CCCSc1ccc2nc(NC(=O)OC)[nH]c2c1
REMARK SMILES IDX 5 1 18 2 17 3 8 4 7 5 6 6 9 7 10 8 16 9 4 11 3 12 2 13 1 14
REMARK SMILES IDX 11 15 12 16 13 18 14 19 15 20
REMARK H PARENT 16 10 11 17
REMARK Flexibility Score: inf
ROOT
ATOM      1  C   UNL     1      -1.827  -1.198   0.477  1.00  0.00     0.009 A 
ATOM      2  C   UNL     1      -0.710  -0.378   0.738  1.00  0.00     0.043 A 
ATOM      3  C   UNL     1       0.528  -0.806   0.265  1.00  0.00     0.068 A 
ATOM      4  C   UNL     1       0.680  -1.976  -0.419  1.00  0.00     0.091 A 
ATOM      5  C   UNL     1      -0.399  -2.814  -0.689  1.00  0.00     0.032 A 
ATOM      6  C   UNL     1      -1.670  -2.413  -0.232  1.00  0.00     0.017 A 
ATOM      7  N   UNL     1       1.971  -2.166  -0.743  1.00  0.00    -0.213 NA
ATOM      8  C   UNL     1       2.572  -1.058  -0.236  1.00  0.00     0.210 A 
ATOM      9  N   UNL     1       1.719  -0.210   0.396  1.00  0.00    -0.324 N 
ATOM     10  H   UNL     1       1.927   0.675   0.909  1.00  0.00     0.170 HD
ENDROOT
BRANCH   1  11
ATOM     11  S   UNL     1      -3.450  -0.704   1.056  1.00  0.00    -0.126 SA
BRANCH  11  12
ATOM     12  C   UNL     1      -3.849   0.216  -0.471  1.00  0.00     0.075 C 
BRANCH  12  13
ATOM     13  C   UNL     1      -5.235   0.859  -0.379  1.00  0.00     0.008 C 
ATOM     14  C   UNL     1      -5.268   2.024   0.609  1.00  0.00     0.005 C 
ENDBRANCH  12  13
ENDBRANCH  11  12
ENDBRANCH   1  11
BRANCH   8  15
ATOM     15  N   UNL     1       3.991  -0.859  -0.316  1.00  0.00    -0.261 N 
ATOM     16  C   UNL     1       4.644   0.408  -0.174  1.00  0.00     0.413 C 
ATOM     17  H   UNL     1       4.586  -1.687  -0.544  1.00  0.00     0.176 HD
ATOM     18  O   UNL     1       3.978   1.480  -0.170  1.00  0.00    -0.224 OA
BRANCH  16  19
ATOM     19  O   UNL     1       6.038   0.446  -0.081  1.00  0.00    -0.453 OA
ATOM     20  C   UNL     1       6.766   1.662   0.047  1.00  0.00     0.284 C 
ENDBRANCH  16  19
ENDBRANCH   8  15
TORSDOF 5
