REMARK SMILES CC(C)[C@@H]1CC[C@@H](C)C[C@H]1O
REMARK SMILES IDX 4 1 5 2 6 3 7 4 8 5 9 6 10 7 2 8 1 9 3 10 11 11
REMARK H PARENT 11 12
REMARK Flexibility Score: inf
ROOT
ATOM      1  C   UNL     1       0.676   0.409   0.372  1.00  0.00     0.020 C 
ATOM      2  C   UNL     1      -0.025  -0.041   1.676  1.00  0.00     0.007 C 
ATOM      3  C   UNL     1      -1.513   0.328   1.668  1.00  0.00     0.004 C 
ATOM      4  C   UNL     1      -2.225  -0.289   0.453  1.00  0.00    -0.012 C 
ATOM      5  C   UNL     1      -3.708   0.097   0.445  1.00  0.00     0.008 C 
ATOM      6  C   UNL     1      -1.542   0.160  -0.851  1.00  0.00     0.035 C 
ATOM      7  C   UNL     1      -0.047  -0.209  -0.858  1.00  0.00     0.118 C 
ENDROOT
BRANCH   1   8
ATOM      8  C   UNL     1       2.212   0.111   0.445  1.00  0.00    -0.012 C 
ATOM      9  C   UNL     1       3.032   1.017  -0.487  1.00  0.00     0.008 C 
ATOM     10  C   UNL     1       2.575  -1.364   0.204  1.00  0.00     0.008 C 
ENDBRANCH   1   8
BRANCH   7  11
ATOM     11  O   UNL     1       0.531   0.264  -2.046  1.00  0.00    -0.393 OA
ATOM     12  H   UNL     1       0.274  -0.371  -2.765  1.00  0.00     0.210 HD
ENDBRANCH   7  11
TORSDOF 2
