REMARK SMILES NC(=O)C(c1ccccc1)(c1ccccc1)[C@@H]1CCN(CCc2ccc3c(c2)CCO3)C1
REMARK SMILES IDX 17 1 18 2 19 3 20 4 32 5 4 6 2 7 1 8 3 11 5 12 6 13 10 14
REMARK SMILES IDX 7 15 9 16 8 17 11 18 12 19 16 20 13 21 15 22 14 23 21 24
REMARK SMILES IDX 22 25 23 26 28 27 24 28 27 29 25 30 26 31 29 32 31 33 30 34
REMARK H PARENT 1 9 1 10
REMARK Flexibility Score: inf
ROOT
ATOM      1  C   UNL     1      -1.102   0.671  -0.014  1.00  0.00     0.029 C 
ATOM      2  C   UNL     1      -0.470   1.781  -0.848  1.00  0.00     0.022 C 
ATOM      3  C   UNL     1       0.946   1.908  -0.296  1.00  0.00     0.085 C 
ATOM      4  N   UNL     1       1.265   0.681   0.466  1.00  0.00    -0.303 NA
ATOM      5  C   UNL     1       0.099  -0.208   0.333  1.00  0.00     0.090 C 
ENDROOT
BRANCH   1   6
ATOM      6  C   UNL     1      -2.342  -0.086  -0.659  1.00  0.00     0.103 C 
BRANCH   6   7
ATOM      7  C   UNL     1      -1.913  -0.568  -2.061  1.00  0.00     0.232 C 
ATOM      8  N   UNL     1      -2.179   0.209  -3.236  1.00  0.00    -0.369 N 
ATOM      9  H   UNL     1      -1.895  -0.151  -4.173  1.00  0.00     0.159 HD
ATOM     10  H   UNL     1      -2.581   1.171  -3.180  1.00  0.00     0.159 HD
ATOM     11  O   UNL     1      -1.240  -1.627  -2.190  1.00  0.00    -0.274 OA
ENDBRANCH   6   7
BRANCH   6  12
ATOM     12  C   UNL     1      -3.605   0.802  -0.785  1.00  0.00    -0.028 A 
ATOM     13  C   UNL     1      -4.713   0.314  -1.521  1.00  0.00     0.005 A 
ATOM     14  C   UNL     1      -3.757   2.047  -0.125  1.00  0.00     0.005 A 
ATOM     15  C   UNL     1      -5.889   1.058  -1.638  1.00  0.00     0.000 A 
ATOM     16  C   UNL     1      -4.938   2.785  -0.250  1.00  0.00     0.000 A 
ATOM     17  C   UNL     1      -5.999   2.295  -1.009  1.00  0.00     0.000 A 
ENDBRANCH   6  12
BRANCH   6  18
ATOM     18  C   UNL     1      -2.775  -1.272   0.244  1.00  0.00    -0.028 A 
ATOM     19  C   UNL     1      -3.252  -2.492  -0.300  1.00  0.00     0.005 A 
ATOM     20  C   UNL     1      -2.875  -1.108   1.648  1.00  0.00     0.005 A 
ATOM     21  C   UNL     1      -3.691  -3.529   0.528  1.00  0.00     0.000 A 
ATOM     22  C   UNL     1      -3.315  -2.150   2.468  1.00  0.00     0.000 A 
ATOM     23  C   UNL     1      -3.710  -3.363   1.910  1.00  0.00     0.000 A 
ENDBRANCH   6  18
ENDBRANCH   1   6
BRANCH   4  24
ATOM     24  C   UNL     1       1.568   0.971   1.886  1.00  0.00     0.089 C 
BRANCH  24  25
ATOM     25  C   UNL     1       2.976   1.563   2.043  1.00  0.00     0.051 C 
BRANCH  25  26
ATOM     26  C   UNL     1       4.027   0.589   1.578  1.00  0.00    -0.046 A 
ATOM     27  C   UNL     1       4.538   0.667   0.263  1.00  0.00     0.011 A 
ATOM     28  C   UNL     1       4.456  -0.454   2.433  1.00  0.00     0.007 A 
ATOM     29  C   UNL     1       5.463  -0.291  -0.151  1.00  0.00    -0.002 A 
ATOM     30  C   UNL     1       5.387  -1.405   1.985  1.00  0.00     0.047 A 
ATOM     31  C   UNL     1       5.866  -1.295   0.682  1.00  0.00     0.122 A 
ATOM     32  C   UNL     1       6.121  -0.436  -1.475  1.00  0.00     0.081 C 
ATOM     33  O   UNL     1       6.756  -2.139   0.058  1.00  0.00    -0.493 OA
ATOM     34  C   UNL     1       6.988  -1.705  -1.283  1.00  0.00     0.234 C 
ENDBRANCH  25  26
ENDBRANCH  24  25
ENDBRANCH   4  24
TORSDOF 7
