REMARK SMILES COc1cc2nc(N3CCN(C(=O)C4COc5ccccc5O4)CC3)nc(N)c2cc1OC
REMARK SMILES IDX 8 1 9 2 10 3 11 4 24 5 25 6 12 7 13 8 7 9 3 10 31 11 4 12
REMARK SMILES IDX 30 13 5 14 29 15 6 16 27 17 26 18 2 19 1 20 32 21 33 22
REMARK SMILES IDX 28 23 14 26 15 27 23 28 16 29 22 30 17 31 21 32 18 33 20 34
REMARK SMILES IDX 19 35
REMARK H PARENT 28 24 28 25
REMARK Flexibility Score: inf
ROOT
ATOM      1  N   UNL     1      -0.288   0.426   0.080  1.00  0.00    -0.337 N 
ATOM      2  C   UNL     1       0.206  -0.869   0.575  1.00  0.00     0.141 C 
ATOM      3  C   UNL     1       1.514  -1.255  -0.120  1.00  0.00     0.141 C 
ATOM      4  N   UNL     1       2.458  -0.131  -0.175  1.00  0.00    -0.336 N 
ATOM      5  C   UNL     1       2.073   1.186   0.332  1.00  0.00     0.141 C 
ATOM      6  C   UNL     1       0.652   1.539  -0.115  1.00  0.00     0.141 C 
ATOM      7  C   UNL     1       3.755  -0.313  -0.771  1.00  0.00     0.267 C 
ATOM      8  O   UNL     1       4.194   0.547  -1.580  1.00  0.00    -0.270 OA
ENDROOT
BRANCH   1   9
ATOM      9  C   UNL     1      -1.704   0.666  -0.072  1.00  0.00     0.228 A 
ATOM     10  C   UNL     1      -6.193  -1.040   0.009  1.00  0.00     0.162 A 
ATOM     11  C   UNL     1      -6.701   0.235  -0.276  1.00  0.00     0.161 A 
ATOM     12  C   UNL     1      -4.805  -1.223   0.129  1.00  0.00     0.079 A 
ATOM     13  C   UNL     1      -5.819   1.321  -0.450  1.00  0.00     0.064 A 
ATOM     14  C   UNL     1      -3.930  -0.147  -0.045  1.00  0.00     0.082 A 
ATOM     15  C   UNL     1      -4.428   1.137  -0.350  1.00  0.00     0.047 A 
ATOM     16  N   UNL     1      -2.595  -0.347   0.086  1.00  0.00    -0.213 NA
ATOM     17  C   UNL     1      -3.487   2.181  -0.520  1.00  0.00     0.137 A 
ATOM     18  N   UNL     1      -2.162   1.911  -0.374  1.00  0.00    -0.195 NA
BRANCH  10  19
ATOM     19  O   UNL     1      -7.099  -2.100   0.169  1.00  0.00    -0.493 OA
ATOM     20  C   UNL     1      -6.727  -3.437   0.488  1.00  0.00     0.278 C 
ENDBRANCH  10  19
BRANCH  11  21
ATOM     21  O   UNL     1      -8.093   0.381  -0.378  1.00  0.00    -0.493 OA
ATOM     22  C   UNL     1      -8.761   1.606  -0.667  1.00  0.00     0.278 C 
ENDBRANCH  11  21
BRANCH  17  23
ATOM     23  N   UNL     1      -3.868   3.523  -0.845  1.00  0.00    -0.383 N 
ATOM     24  H   UNL     1      -4.805   3.775  -1.224  1.00  0.00     0.158 HD
ATOM     25  H   UNL     1      -3.167   4.285  -0.755  1.00  0.00     0.158 HD
ENDBRANCH  17  23
ENDBRANCH   1   9
BRANCH   7  26
ATOM     26  C   UNL     1       4.597  -1.525  -0.449  1.00  0.00     0.299 C 
ATOM     27  C   UNL     1       4.900  -1.591   1.062  1.00  0.00     0.285 C 
ATOM     28  O   UNL     1       5.827  -1.487  -1.181  1.00  0.00    -0.473 OA
ATOM     29  O   UNL     1       5.837  -0.581   1.425  1.00  0.00    -0.485 OA
ATOM     30  C   UNL     1       6.922  -0.750  -0.724  1.00  0.00     0.162 A 
ATOM     31  C   UNL     1       6.909  -0.263   0.588  1.00  0.00     0.161 A 
ATOM     32  C   UNL     1       8.014  -0.487  -1.555  1.00  0.00     0.050 A 
ATOM     33  C   UNL     1       7.956   0.534   1.047  1.00  0.00     0.050 A 
ATOM     34  C   UNL     1       9.075   0.299  -1.087  1.00  0.00     0.004 A 
ATOM     35  C   UNL     1       9.039   0.816   0.208  1.00  0.00     0.004 A 
ENDBRANCH   7  26
TORSDOF 5
