REMARK SMILES CCCNC(=O)NS(=O)(=O)c1ccc(Cl)cc1
REMARK SMILES IDX 4 1 5 2 6 3 7 4 3 7 2 8 1 9 8 10 9 11 10 12 11 13 12 14
REMARK SMILES IDX 17 15 13 16 16 17 14 18 15 19
REMARK H PARENT 4 5 7 6
REMARK Flexibility Score: inf
ROOT
ATOM      1  N   UNL     1      -2.078  -0.496   0.802  1.00  0.00    -0.337 N 
ATOM      2  C   UNL     1      -1.215  -0.169  -0.295  1.00  0.00     0.328 C 
ATOM      3  O   UNL     1      -1.695   0.009  -1.448  1.00  0.00    -0.248 OA
ATOM      4  N   UNL     1       0.194  -0.052  -0.080  1.00  0.00    -0.231 N 
ATOM      5  H   UNL     1      -1.651  -0.713   1.731  1.00  0.00     0.165 HD
ATOM      6  H   UNL     1       0.585  -0.203   0.876  1.00  0.00     0.185 HD
ENDROOT
BRANCH   1   7
ATOM      7  C   UNL     1      -3.528  -0.613   0.659  1.00  0.00     0.117 C 
BRANCH   7   8
ATOM      8  C   UNL     1      -4.168   0.775   0.549  1.00  0.00     0.018 C 
ATOM      9  C   UNL     1      -5.686   0.674   0.435  1.00  0.00     0.006 C 
ENDBRANCH   7   8
ENDBRANCH   1   7
BRANCH   4  10
ATOM     10  S   UNL     1       1.284   0.344  -1.367  1.00  0.00     0.265 S 
ATOM     11  O   UNL     1       0.915   1.679  -1.952  1.00  0.00    -0.201 OA
ATOM     12  O   UNL     1       1.203  -0.704  -2.441  1.00  0.00    -0.201 OA
BRANCH  10  13
ATOM     13  C   UNL     1       2.925   0.413  -0.734  1.00  0.00     0.088 A 
ATOM     14  C   UNL     1       3.722  -0.741  -0.713  1.00  0.00     0.024 A 
ATOM     15  C   UNL     1       3.433   1.614  -0.220  1.00  0.00     0.024 A 
ATOM     16  C   UNL     1       5.020  -0.689  -0.196  1.00  0.00     0.022 A 
ATOM     17  C   UNL     1       4.732   1.664   0.297  1.00  0.00     0.022 A 
ATOM     18  C   UNL     1       5.527   0.513   0.308  1.00  0.00     0.041 A 
ATOM     19  Cl  UNL     1       7.155   0.577   0.957  1.00  0.00    -0.084 Cl
ENDBRANCH  10  13
ENDBRANCH   4  10
TORSDOF 4
