REMARK SMILES O=C1[C@H](CC[C@H](O)c2ccc(F)cc2)[C@@H](c2ccc(O)cc2)N1c1ccc(F)cc1
REMARK SMILES IDX 4 1 3 2 2 3 15 4 1 5 23 6 16 7 17 8 22 9 18 10 21 11 19 12
REMARK SMILES IDX 20 13 24 15 25 16 30 17 26 18 29 19 27 20 28 21 5 22 6 23
REMARK SMILES IDX 7 24 8 26 9 27 14 28 10 29 13 30 11 31 12 32
REMARK H PARENT 20 14 7 25
REMARK Flexibility Score: inf
ROOT
ATOM      1  C   UNL     1       1.057   0.205  -0.865  1.00  0.00     0.019 C 
ENDROOT
BRANCH   1   2
ATOM      2  C   UNL     1      -0.141  -0.276  -0.026  1.00  0.00     0.107 C 
ATOM      3  C   UNL     1      -0.505   0.677   1.075  1.00  0.00     0.233 C 
ATOM      4  C   UNL     1      -1.429   0.003  -0.629  1.00  0.00     0.133 C 
ATOM      5  O   UNL     1       0.064   1.091   2.119  1.00  0.00    -0.274 OA
ATOM      6  N   UNL     1      -1.819   0.918   0.430  1.00  0.00    -0.304 N 
BRANCH   4   7
ATOM      7  C   UNL     1      -2.342  -1.206  -0.710  1.00  0.00    -0.024 A 
ATOM      8  C   UNL     1      -2.618  -1.777  -1.963  1.00  0.00     0.010 A 
ATOM      9  C   UNL     1      -2.889  -1.797   0.446  1.00  0.00     0.010 A 
ATOM     10  C   UNL     1      -3.444  -2.901  -2.063  1.00  0.00     0.046 A 
ATOM     11  C   UNL     1      -3.714  -2.921   0.342  1.00  0.00     0.046 A 
ATOM     12  C   UNL     1      -3.995  -3.475  -0.910  1.00  0.00     0.115 A 
BRANCH  12  13
ATOM     13  O   UNL     1      -4.819  -4.594  -0.998  1.00  0.00    -0.508 OA
ATOM     14  H   UNL     1      -5.041  -5.019  -1.890  1.00  0.00     0.293 HD
ENDBRANCH  12  13
ENDBRANCH   4   7
BRANCH   6  15
ATOM     15  C   UNL     1      -2.967   1.724   0.714  1.00  0.00     0.045 A 
ATOM     16  C   UNL     1      -3.023   2.489   1.890  1.00  0.00     0.029 A 
ATOM     17  C   UNL     1      -4.050   1.751  -0.178  1.00  0.00     0.029 A 
ATOM     18  C   UNL     1      -4.149   3.270   2.168  1.00  0.00     0.041 A 
ATOM     19  C   UNL     1      -5.175   2.533   0.103  1.00  0.00     0.041 A 
ATOM     20  C   UNL     1      -5.225   3.292   1.276  1.00  0.00     0.123 A 
ATOM     21  F   UNL     1      -6.316   4.049   1.547  1.00  0.00    -0.207 F 
ENDBRANCH   6  15
ENDBRANCH   1   2
BRANCH   1  22
ATOM     22  C   UNL     1       2.386  -0.059  -0.144  1.00  0.00     0.037 C 
BRANCH  22  23
ATOM     23  C   UNL     1       3.593   0.411  -0.983  1.00  0.00     0.144 C 
BRANCH  23  24
ATOM     24  O   UNL     1       3.677  -0.274  -2.209  1.00  0.00    -0.388 OA
ATOM     25  H   UNL     1       3.651  -1.248  -2.021  1.00  0.00     0.211 HD
ENDBRANCH  23  24
BRANCH  23  26
ATOM     26  C   UNL     1       4.889   0.275  -0.208  1.00  0.00    -0.019 A 
ATOM     27  C   UNL     1       5.371  -0.991   0.179  1.00  0.00     0.009 A 
ATOM     28  C   UNL     1       5.623   1.421   0.149  1.00  0.00     0.009 A 
ATOM     29  C   UNL     1       6.564  -1.103   0.901  1.00  0.00     0.039 A 
ATOM     30  C   UNL     1       6.815   1.303   0.870  1.00  0.00     0.039 A 
ATOM     31  C   UNL     1       7.285   0.042   1.246  1.00  0.00     0.123 A 
ATOM     32  F   UNL     1       8.441  -0.070   1.946  1.00  0.00    -0.207 F 
ENDBRANCH  23  26
ENDBRANCH  22  23
ENDBRANCH   1  22
TORSDOF 8
