REMARK SMILES CCN(CC)CC(=O)Nc1c(C)cccc1C
REMARK SMILES IDX 6 1 3 2 2 3 1 4 4 5 5 6 7 7 8 8 9 9 10 11 11 12 16 13 12 14
REMARK SMILES IDX 13 15 15 16 17 17 14 18
REMARK H PARENT 9 10
REMARK Flexibility Score: inf
ROOT
ATOM      1  C   UNL     1      -1.419  -0.895  -0.885  1.00  0.00     0.185 C 
ENDROOT
BRANCH   1   2
ATOM      2  N   UNL     1      -2.453   0.045  -0.398  1.00  0.00    -0.295 NA
BRANCH   2   3
ATOM      3  C   UNL     1      -2.244   0.467   1.014  1.00  0.00     0.081 C 
ATOM      4  C   UNL     1      -2.505  -0.624   2.062  1.00  0.00     0.021 C 
ENDBRANCH   2   3
BRANCH   2   5
ATOM      5  C   UNL     1      -3.809  -0.480  -0.679  1.00  0.00     0.081 C 
ATOM      6  C   UNL     1      -4.897   0.564  -0.427  1.00  0.00     0.021 C 
ENDBRANCH   2   5
ENDBRANCH   1   2
BRANCH   1   7
ATOM      7  C   UNL     1      -0.070  -0.238  -0.947  1.00  0.00     0.238 C 
ATOM      8  O   UNL     1       0.149   0.643  -1.822  1.00  0.00    -0.273 OA
ATOM      9  N   UNL     1       0.945  -0.584   0.004  1.00  0.00    -0.324 N 
ATOM     10  H   UNL     1       0.685  -1.162   0.834  1.00  0.00     0.169 HD
BRANCH   9  11
ATOM     11  C   UNL     1       2.274  -0.043  -0.065  1.00  0.00     0.047 A 
ATOM     12  C   UNL     1       2.730   0.830   0.948  1.00  0.00    -0.027 A 
ATOM     13  C   UNL     1       3.141  -0.402  -1.125  1.00  0.00    -0.027 A 
ATOM     14  C   UNL     1       1.827   1.234   2.082  1.00  0.00     0.046 C 
ATOM     15  C   UNL     1       4.020   1.376   0.863  1.00  0.00     0.005 A 
ATOM     16  C   UNL     1       4.422   0.166  -1.191  1.00  0.00     0.005 A 
ATOM     17  C   UNL     1       2.711  -1.363  -2.201  1.00  0.00     0.046 C 
ATOM     18  C   UNL     1       4.858   1.047  -0.202  1.00  0.00     0.001 A 
ENDBRANCH   9  11
ENDBRANCH   1   7
TORSDOF 5
