REMARK SMILES Cc1cccc(Nc2ccncc2S(=O)(=O)NC(=O)NC(C)C)c1
REMARK SMILES IDX 13 1 8 2 9 3 10 4 11 5 12 6 14 7 15 8 16 9 17 10 20 11 18 12
REMARK SMILES IDX 19 14 21 16 22 17 23 18 7 19 6 21 5 22 24 23 4 24 2 25 3 26
REMARK SMILES IDX 1 27
REMARK H PARENT 20 13 17 15 7 20
REMARK Flexibility Score: inf
ROOT
ATOM      1  C   UNL     1       0.099   0.539   0.276  1.00  0.00     0.129 A 
ATOM      2  C   UNL     1      -1.202   0.779   0.768  1.00  0.00     0.062 A 
ATOM      3  C   UNL     1      -1.485   2.007   1.387  1.00  0.00     0.047 A 
ATOM      4  C   UNL     1      -0.489   2.977   1.486  1.00  0.00     0.113 A 
ATOM      5  N   UNL     1       0.752   2.732   0.992  1.00  0.00    -0.263 NA
ATOM      6  C   UNL     1       1.064   1.551   0.397  1.00  0.00     0.135 A 
ENDROOT
BRANCH   1   7
ATOM      7  S   UNL     1       0.510  -0.982  -0.527  1.00  0.00     0.269 S 
ATOM      8  O   UNL     1      -0.497  -1.258  -1.608  1.00  0.00    -0.201 OA
ATOM      9  O   UNL     1       0.483  -2.111   0.465  1.00  0.00    -0.201 OA
BRANCH   7  10
ATOM     10  N   UNL     1       2.082  -0.899  -1.256  1.00  0.00    -0.231 N 
ATOM     11  N   UNL     1       4.557  -0.986  -1.156  1.00  0.00    -0.335 N 
ATOM     12  C   UNL     1       3.285  -1.066  -0.498  1.00  0.00     0.328 C 
ATOM     13  H   UNL     1       4.568  -0.874  -2.195  1.00  0.00     0.165 HD
ATOM     14  O   UNL     1       3.225  -1.274   0.745  1.00  0.00    -0.248 OA
ATOM     15  H   UNL     1       2.142  -0.710  -2.281  1.00  0.00     0.185 HD
BRANCH  11  16
ATOM     16  C   UNL     1       5.825  -1.074  -0.425  1.00  0.00     0.077 C 
ATOM     17  C   UNL     1       6.099   0.241   0.312  1.00  0.00     0.030 C 
ATOM     18  C   UNL     1       6.973  -1.396  -1.388  1.00  0.00     0.030 C 
ENDBRANCH  11  16
ENDBRANCH   7  10
ENDBRANCH   1   7
BRANCH   2  19
ATOM     19  N   UNL     1      -2.219  -0.236   0.690  1.00  0.00    -0.354 N 
ATOM     20  H   UNL     1      -1.957  -1.216   0.940  1.00  0.00     0.167 HD
BRANCH  19  21
ATOM     21  C   UNL     1      -3.587   0.026   0.332  1.00  0.00     0.039 A 
ATOM     22  C   UNL     1      -3.936   1.128  -0.470  1.00  0.00     0.026 A 
ATOM     23  C   UNL     1      -4.592  -0.861   0.750  1.00  0.00     0.029 A 
ATOM     24  C   UNL     1      -5.270   1.354  -0.815  1.00  0.00     0.002 A 
ATOM     25  C   UNL     1      -5.931  -0.646   0.389  1.00  0.00    -0.049 A 
ATOM     26  C   UNL     1      -6.267   0.478  -0.380  1.00  0.00     0.003 A 
ATOM     27  C   UNL     1      -7.004  -1.571   0.882  1.00  0.00     0.044 C 
ENDBRANCH  19  21
ENDBRANCH   2  19
TORSDOF 5
