REMARK SMILES CCN(CC)C(=O)N1CCN(C)CC1
REMARK SMILES IDX 3 1 6 2 7 3 8 4 9 5 10 6 11 7 12 8 13 9 14 10 2 11 1 12 4 13
REMARK SMILES IDX 5 14
REMARK H PARENT
REMARK Flexibility Score: inf
ROOT
ATOM      1  N   UNL     1      -1.877  -0.212  -1.094  1.00  0.00    -0.325 N 
ATOM      2  C   UNL     1      -0.707   0.592  -1.346  1.00  0.00     0.320 C 
ATOM      3  O   UNL     1      -0.780   1.560  -2.151  1.00  0.00    -0.248 OA
ATOM      4  N   UNL     1       0.544   0.310  -0.694  1.00  0.00    -0.322 N 
ATOM      5  C   UNL     1       0.564  -0.217   0.678  1.00  0.00     0.137 C 
ATOM      6  C   UNL     1       1.734   0.356   1.513  1.00  0.00     0.106 C 
ATOM      7  N   UNL     1       2.792   0.989   0.694  1.00  0.00    -0.303 NA
ATOM      8  C   UNL     1       4.045   1.086   1.458  1.00  0.00     0.105 C 
ATOM      9  C   UNL     1       3.008   0.253  -0.561  1.00  0.00     0.106 C 
ATOM     10  C   UNL     1       1.790   0.460  -1.456  1.00  0.00     0.137 C 
ENDROOT
BRANCH   1  11
ATOM     11  C   UNL     1      -1.780  -1.678  -1.152  1.00  0.00     0.118 C 
ATOM     12  C   UNL     1      -2.314  -2.326   0.125  1.00  0.00     0.027 C 
ENDBRANCH   1  11
BRANCH   1  13
ATOM     13  C   UNL     1      -3.197   0.432  -1.065  1.00  0.00     0.118 C 
ATOM     14  C   UNL     1      -3.381   1.204   0.238  1.00  0.00     0.027 C 
ENDBRANCH   1  13
TORSDOF 2
