REMARK SMILES COc1cccc(C2(O)CCCCC2CN(C)C)c1
REMARK SMILES IDX 8 1 10 2 11 3 12 4 13 5 14 6 7 7 3 8 4 9 19 10 5 11 6 12
REMARK SMILES IDX 2 13 1 14 9 15 15 17 16 18 17 19 18 20
REMARK H PARENT 9 16
REMARK Flexibility Score: inf
ROOT
ATOM      1  C   UNL     1       0.000  -0.954   0.502  1.00  0.00     0.094 C 
ATOM      2  C   UNL     1       0.480  -2.336   1.039  1.00  0.00     0.040 C 
ATOM      3  C   UNL     1      -0.695  -3.205   1.507  1.00  0.00     0.003 C 
ATOM      4  C   UNL     1      -1.701  -3.417   0.372  1.00  0.00     0.001 C 
ATOM      5  C   UNL     1      -2.204  -2.076  -0.174  1.00  0.00     0.008 C 
ATOM      6  C   UNL     1      -1.031  -1.191  -0.653  1.00  0.00     0.039 C 
ENDROOT
BRANCH   1   7
ATOM      7  C   UNL     1       1.221  -0.162  -0.000  1.00  0.00    -0.013 A 
ATOM      8  C   UNL     1       2.711   1.781   0.121  1.00  0.00     0.119 A 
ATOM      9  C   UNL     1       3.460   1.270  -0.952  1.00  0.00     0.046 A 
ATOM     10  C   UNL     1       1.604   1.063   0.590  1.00  0.00     0.053 A 
ATOM     11  C   UNL     1       3.102   0.058  -1.541  1.00  0.00     0.004 A 
ATOM     12  C   UNL     1       1.996  -0.653  -1.072  1.00  0.00     0.007 A 
BRANCH   8  13
ATOM     13  O   UNL     1       3.029   2.995   0.748  1.00  0.00    -0.497 OA
ATOM     14  C   UNL     1       4.121   3.831   0.376  1.00  0.00     0.278 C 
ENDBRANCH   8  13
ENDBRANCH   1   7
BRANCH   1  15
ATOM     15  O   UNL     1      -0.658  -0.253   1.538  1.00  0.00    -0.385 OA
ATOM     16  H   UNL     1      -0.094  -0.292   2.355  1.00  0.00     0.211 HD
ENDBRANCH   1  15
BRANCH   6  17
ATOM     17  C   UNL     1      -1.546   0.114  -1.315  1.00  0.00     0.090 C 
BRANCH  17  18
ATOM     18  N   UNL     1      -2.353   0.931  -0.373  1.00  0.00    -0.309 NA
ATOM     19  C   UNL     1      -1.874   2.322  -0.327  1.00  0.00     0.104 C 
ATOM     20  C   UNL     1      -3.780   0.921  -0.738  1.00  0.00     0.104 C 
ENDBRANCH  17  18
ENDBRANCH   6  17
TORSDOF 5
