REMARK SMILES CC1=C(CC(=O)O)c2cc(F)ccc2/C1=C\c1ccc(S(C)=O)cc1
REMARK SMILES IDX 1 1 2 2 3 3 8 4 9 5 10 6 11 7 12 8 13 9 14 10 15 11 16 12
REMARK SMILES IDX 4 13 5 14 6 15 7 16 17 18 18 19 25 20 19 21 24 22 20 23
REMARK SMILES IDX 21 24 22 25 23 26
REMARK H PARENT 7 17
REMARK Flexibility Score: inf
ROOT
ATOM      1  C   UNL     1      -2.408   2.201   1.991  1.00  0.00     0.045 C 
ATOM      2  C   UNL     1      -2.188   0.939   1.202  1.00  0.00    -0.039 C 
ATOM      3  C   UNL     1      -3.153   0.116   0.763  1.00  0.00    -0.025 C 
ATOM      4  C   UNL     1      -2.525  -0.999   0.053  1.00  0.00    -0.011 A 
ATOM      5  C   UNL     1      -3.124  -2.112  -0.545  1.00  0.00     0.048 A 
ATOM      6  C   UNL     1      -2.297  -3.110  -1.081  1.00  0.00     0.123 A 
ATOM      7  F   UNL     1      -2.848  -4.202  -1.665  1.00  0.00    -0.207 F 
ATOM      8  C   UNL     1      -0.897  -2.996  -0.985  1.00  0.00     0.040 A 
ATOM      9  C   UNL     1      -0.314  -1.874  -0.374  1.00  0.00     0.012 A 
ATOM     10  C   UNL     1      -1.154  -0.858   0.104  1.00  0.00    -0.010 A 
ATOM     11  C   UNL     1      -0.866   0.391   0.825  1.00  0.00    -0.014 C 
ATOM     12  C   UNL     1       0.319   0.958   1.113  1.00  0.00     0.017 C 
ENDROOT
BRANCH   3  13
ATOM     13  C   UNL     1      -4.637   0.302   0.932  1.00  0.00     0.159 C 
BRANCH  13  14
ATOM     14  C   UNL     1      -5.200   1.032  -0.245  1.00  0.00     0.307 C 
ATOM     15  O   UNL     1      -5.585   0.391  -1.261  1.00  0.00    -0.252 OA
BRANCH  14  16
ATOM     16  O   UNL     1      -5.264   2.421  -0.235  1.00  0.00    -0.481 OA
ATOM     17  H   UNL     1      -5.628   2.930  -1.032  1.00  0.00     0.296 HD
ENDBRANCH  14  16
ENDBRANCH  13  14
ENDBRANCH   3  13
BRANCH  12  18
ATOM     18  C   UNL     1       1.607   0.530   0.547  1.00  0.00    -0.025 A 
ATOM     19  C   UNL     1       2.676   0.231   1.403  1.00  0.00     0.009 A 
ATOM     20  C   UNL     1       1.810   0.520  -0.843  1.00  0.00     0.009 A 
ATOM     21  C   UNL     1       3.921  -0.127   0.875  1.00  0.00     0.018 A 
ATOM     22  C   UNL     1       3.055   0.161  -1.369  1.00  0.00     0.018 A 
ATOM     23  C   UNL     1       4.112  -0.167  -0.513  1.00  0.00     0.039 A 
BRANCH  23  24
ATOM     24  S   UNL     1       5.691  -0.617  -1.200  1.00  0.00     0.050 S 
ATOM     25  C   UNL     1       6.842   0.627  -0.587  1.00  0.00     0.129 C 
ATOM     26  O   UNL     1       6.071  -1.896  -0.465  1.00  0.00    -0.255 OA
ENDBRANCH  23  24
ENDBRANCH  12  18
TORSDOF 5
