REMARK SMILES CN(C)C(=N)NC(=N)N
REMARK SMILES IDX 1 1 2 2 3 3 4 4 5 5 6 6 7 7 9 8 8 9
REMARK H PARENT 5 10 6 11 9 12 9 13 8 14
REMARK Flexibility Score: inf
ROOT
ATOM      1  C   UNL     1      -2.395   0.231   1.499  1.00  0.00     0.146 C 
ATOM      2  N   UNL     1      -1.387   0.425   0.450  1.00  0.00    -0.349 N 
ATOM      3  C   UNL     1      -1.638   1.406  -0.610  1.00  0.00     0.146 C 
ATOM      4  C   UNL     1      -0.156  -0.341   0.449  1.00  0.00     0.197 C 
ATOM      5  N   UNL     1      -0.045  -1.418   1.168  1.00  0.00    -0.269 NA
ATOM      6  N   UNL     1       0.971   0.106  -0.332  1.00  0.00    -0.297 N 
ATOM      7  C   UNL     1       2.092  -0.718  -0.698  1.00  0.00     0.192 C 
ATOM      8  N   UNL     1       3.232  -0.119  -1.319  1.00  0.00    -0.370 N 
ATOM      9  N   UNL     1       2.064  -1.999  -0.503  1.00  0.00    -0.269 NA
ATOM     10  H   UNL     1      -0.811  -1.806   1.760  1.00  0.00     0.191 HD
ATOM     11  H   UNL     1       0.997   1.101  -0.645  1.00  0.00     0.173 HD
ATOM     12  H   UNL     1       4.053  -0.697  -1.607  1.00  0.00     0.159 HD
ATOM     13  H   UNL     1       3.262   0.911  -1.490  1.00  0.00     0.159 HD
ATOM     14  H   UNL     1       2.863  -2.615  -0.775  1.00  0.00     0.191 HD
ENDROOT
TORSDOF 0
