REMARK SMILES C#C[C@]1(OC(C)=O)CC[C@H]2[C@@H]3CCC4=C/C(=N/O)CC[C@@H]4[C@H]3CC[C@@]21CC
REMARK SMILES IDX 10 1 9 2 8 3 3 4 25 5 24 6 23 7 22 8 21 9 20 10 19 11 16 12
REMARK SMILES IDX 15 13 14 14 13 15 12 16 11 17 17 18 26 19 27 20 4 21 5 22
REMARK SMILES IDX 6 23 7 24 2 25 1 26 18 27
REMARK H PARENT 18 28
REMARK Flexibility Score: inf
ROOT
ATOM      1  C   UNL     1      -0.957  -0.945  -0.271  1.00  0.00     0.004 C 
ATOM      2  C   UNL     1      -1.909  -1.502  -1.322  1.00  0.00     0.010 C 
ATOM      3  C   UNL     1      -3.308  -1.103  -0.837  1.00  0.00     0.063 C 
ATOM      4  C   UNL     1      -3.132  -0.152   0.383  1.00  0.00     0.177 C 
ATOM      5  C   UNL     1      -1.632   0.308   0.309  1.00  0.00     0.025 C 
ATOM      6  C   UNL     1      -0.932   0.566   1.680  1.00  0.00     0.013 C 
ATOM      7  C   UNL     1       0.600   0.750   1.531  1.00  0.00     0.005 C 
ATOM      8  C   UNL     1       1.302  -0.353   0.672  1.00  0.00    -0.000 C 
ATOM      9  C   UNL     1       2.773   0.032   0.334  1.00  0.00     0.019 C 
ATOM     10  C   UNL     1       3.656   0.047   1.599  1.00  0.00     0.015 C 
ATOM     11  C   UNL     1       5.077   0.528   1.282  1.00  0.00     0.060 C 
ATOM     12  C   UNL     1       5.649  -0.160   0.067  1.00  0.00     0.080 C 
ATOM     13  C   UNL     1       4.752  -0.890  -0.851  1.00  0.00     0.027 C 
ATOM     14  C   UNL     1       3.414  -0.881  -0.711  1.00  0.00    -0.065 C 
ATOM     15  C   UNL     1       2.590  -1.674  -1.713  1.00  0.00     0.031 C 
ATOM     16  C   UNL     1       1.158  -1.951  -1.249  1.00  0.00     0.008 C 
ATOM     17  C   UNL     1       0.521  -0.702  -0.631  1.00  0.00    -0.003 C 
ATOM     18  N   UNL     1       6.915  -0.077  -0.236  1.00  0.00    -0.094 NA
ENDROOT
BRANCH   5  19
ATOM     19  C   UNL     1      -1.480   1.640  -0.539  1.00  0.00     0.009 C 
ATOM     20  C   UNL     1      -2.000   1.673  -1.978  1.00  0.00     0.005 C 
ENDBRANCH   5  19
BRANCH   4  21
ATOM     21  O   UNL     1      -4.018   0.974   0.305  1.00  0.00    -0.445 OA
BRANCH  21  22
ATOM     22  C   UNL     1      -5.419   0.889   0.284  1.00  0.00     0.304 C 
ATOM     23  C   UNL     1      -6.227   2.140   0.235  1.00  0.00     0.139 C 
ATOM     24  O   UNL     1      -6.004  -0.229   0.286  1.00  0.00    -0.253 OA
ENDBRANCH  21  22
ENDBRANCH   4  21
BRANCH   4  25
ATOM     25  C   UNL     1      -3.427  -0.906   1.626  1.00  0.00    -0.058 C 
ATOM     26  C   UNL     1      -3.675  -1.524   2.633  1.00  0.00     0.008 C 
ENDBRANCH   4  25
BRANCH  18  27
ATOM     27  O   UNL     1       7.861   0.619   0.495  1.00  0.00    -0.411 OA
ATOM     28  H   UNL     1       7.637   1.132   1.334  1.00  0.00     0.330 HD
ENDBRANCH  18  27
TORSDOF 5
