REMARK SMILES C[C@](N)(Cc1ccc(O)cc1)C(=O)O
REMARK SMILES IDX 1 1 2 2 3 3 4 6 5 7 6 8 11 9 7 10 10 11 8 12 9 13 12 15
REMARK SMILES IDX 13 16 14 17
REMARK H PARENT 3 4 3 5 9 14 14 18
REMARK Flexibility Score: inf
ROOT
ATOM      1  C   UNL     1      -1.129   0.689  -1.985  1.00  0.00     0.041 C 
ATOM      2  C   UNL     1      -1.649   0.243  -0.603  1.00  0.00     0.115 C 
ENDROOT
BRANCH   2   3
ATOM      3  N   UNL     1      -1.528   1.372   0.332  1.00  0.00    -0.316 NA
ATOM      4  H   UNL     1      -2.117   2.171  -0.003  1.00  0.00     0.119 HD
ATOM      5  H   UNL     1      -1.890   1.091   1.273  1.00  0.00     0.119 HD
ENDBRANCH   2   3
BRANCH   2   6
ATOM      6  C   UNL     1      -0.831  -0.966  -0.072  1.00  0.00     0.069 C 
BRANCH   6   7
ATOM      7  C   UNL     1       0.630  -0.652   0.154  1.00  0.00    -0.045 A 
ATOM      8  C   UNL     1       1.057  -0.092   1.370  1.00  0.00     0.007 A 
ATOM      9  C   UNL     1       1.575  -0.905  -0.854  1.00  0.00     0.007 A 
ATOM     10  C   UNL     1       2.407   0.212   1.572  1.00  0.00     0.046 A 
ATOM     11  C   UNL     1       2.925  -0.600  -0.649  1.00  0.00     0.046 A 
ATOM     12  C   UNL     1       3.343  -0.041   0.565  1.00  0.00     0.115 A 
BRANCH  12  13
ATOM     13  O   UNL     1       4.685   0.267   0.780  1.00  0.00    -0.508 OA
ATOM     14  H   UNL     1       5.388   0.097   0.071  1.00  0.00     0.293 HD
ENDBRANCH  12  13
ENDBRANCH   6   7
ENDBRANCH   2   6
BRANCH   2  15
ATOM     15  C   UNL     1      -3.101  -0.180  -0.739  1.00  0.00     0.323 C 
ATOM     16  O   UNL     1      -3.429  -1.048  -1.594  1.00  0.00    -0.250 OA
BRANCH  15  17
ATOM     17  O   UNL     1      -4.080   0.361   0.091  1.00  0.00    -0.480 OA
ATOM     18  H   UNL     1      -5.048   0.074   0.010  1.00  0.00     0.296 HD
ENDBRANCH  15  17
ENDBRANCH   2  15
TORSDOF 6
