REMARK SMILES C=CCN1C[C@H](C(=O)N(CCCN(C)C)C(=O)NCC)C[C@@H]2c3cccc4[nH]cc(c34)C[C@H]21
REMARK SMILES IDX 9 1 7 2 8 3 6 4 33 5 32 6 22 7 4 8 30 9 23 10 21 11 5 12
REMARK SMILES IDX 29 13 31 14 24 15 28 16 27 17 25 18 26 20 3 21 2 22 1 23
REMARK SMILES IDX 10 24 11 25 12 26 13 27 14 28 15 29 16 30 17 31 18 32 19 34
REMARK SMILES IDX 20 35
REMARK H PARENT 28 19 18 33
REMARK Flexibility Score: inf
ROOT
ATOM      1  N   UNL     1       2.429  -0.930   0.088  1.00  0.00    -0.264 N 
ENDROOT
BRANCH   1   2
ATOM      2  C   UNL     1       1.071  -1.222  -0.292  1.00  0.00     0.235 C 
ATOM      3  O   UNL     1       0.830  -2.237  -1.002  1.00  0.00    -0.274 OA
BRANCH   2   4
ATOM      4  C   UNL     1      -0.066  -0.320   0.126  1.00  0.00     0.094 C 
ATOM      5  C   UNL     1      -2.826   0.648  -0.132  1.00  0.00     0.069 C 
ATOM      6  C   UNL     1      -4.036   1.577   0.232  1.00  0.00     0.057 C 
ATOM      7  C   UNL     1      -2.380  -0.206   1.117  1.00  0.00     0.038 C 
ATOM      8  N   UNL     1      -1.659   1.415  -0.651  1.00  0.00    -0.295 NA
ATOM      9  C   UNL     1      -5.092   0.775   0.926  1.00  0.00    -0.021 A 
ATOM     10  C   UNL     1      -3.564  -0.957   1.721  1.00  0.00    -0.034 A 
ATOM     11  C   UNL     1      -1.219  -1.137   0.729  1.00  0.00     0.025 C 
ATOM     12  C   UNL     1      -0.568   0.505  -1.067  1.00  0.00     0.098 C 
ATOM     13  C   UNL     1      -6.449   0.999   1.134  1.00  0.00     0.087 A 
ATOM     14  C   UNL     1      -4.804  -0.365   1.596  1.00  0.00     0.006 A 
ATOM     15  C   UNL     1      -3.500  -2.110   2.542  1.00  0.00     0.005 A 
ATOM     16  N   UNL     1      -6.969   0.001   1.899  1.00  0.00    -0.361 N 
ATOM     17  C   UNL     1      -5.940  -0.826   2.175  1.00  0.00     0.046 A 
ATOM     18  C   UNL     1      -4.679  -2.622   3.144  1.00  0.00     0.002 A 
ATOM     19  H   UNL     1      -7.957  -0.089   2.225  1.00  0.00     0.166 HD
ATOM     20  C   UNL     1      -5.923  -1.974   2.965  1.00  0.00     0.027 A 
BRANCH   8  21
ATOM     21  C   UNL     1      -1.981   2.379  -1.734  1.00  0.00     0.111 C 
BRANCH  21  22
ATOM     22  C   UNL     1      -2.673   1.743  -2.921  1.00  0.00    -0.019 C 
ATOM     23  C   UNL     1      -3.795   2.252  -3.437  1.00  0.00     0.005 C 
ENDBRANCH  21  22
ENDBRANCH   8  21
ENDBRANCH   2   4
ENDBRANCH   1   2
BRANCH   1  24
ATOM     24  C   UNL     1       2.989   0.403  -0.177  1.00  0.00     0.132 C 
BRANCH  24  25
ATOM     25  C   UNL     1       3.432   0.515  -1.642  1.00  0.00     0.038 C 
BRANCH  25  26
ATOM     26  C   UNL     1       3.900   1.934  -1.996  1.00  0.00     0.085 C 
BRANCH  26  27
ATOM     27  N   UNL     1       5.000   2.384  -1.114  1.00  0.00    -0.309 NA
ATOM     28  C   UNL     1       5.080   3.854  -1.115  1.00  0.00     0.104 C 
ATOM     29  C   UNL     1       6.292   1.823  -1.545  1.00  0.00     0.104 C 
ENDBRANCH  26  27
ENDBRANCH  25  26
ENDBRANCH  24  25
ENDBRANCH   1  24
BRANCH   1  30
ATOM     30  C   UNL     1       3.301  -2.001   0.505  1.00  0.00     0.324 C 
ATOM     31  O   UNL     1       4.549  -1.890   0.349  1.00  0.00    -0.248 OA
ATOM     32  N   UNL     1       2.764  -3.185   1.118  1.00  0.00    -0.338 N 
ATOM     33  H   UNL     1       1.735  -3.260   1.284  1.00  0.00     0.165 HD
BRANCH  32  34
ATOM     34  C   UNL     1       3.602  -4.315   1.514  1.00  0.00     0.114 C 
ATOM     35  C   UNL     1       4.358  -3.998   2.800  1.00  0.00     0.027 C 
ENDBRANCH  32  34
ENDBRANCH   1  30
TORSDOF 10
