REMARK SMILES CCN1CCC[C@H]1CNC(=O)c1c(OC)ccc(Br)c1OC
REMARK SMILES IDX 9 1 10 2 11 3 8 5 7 6 3 7 4 8 5 9 6 10 2 11 1 12 12 13 13 14
REMARK SMILES IDX 20 15 16 16 18 17 17 18 19 19 14 20 15 21 21 22 22 23
REMARK H PARENT 9 4
REMARK Flexibility Score: inf
ROOT
ATOM      1  N   UNL     1      -0.265   0.841  -0.385  1.00  0.00    -0.350 N 
ATOM      2  C   UNL     1      -1.350   0.402   0.448  1.00  0.00     0.258 C 
ATOM      3  O   UNL     1      -1.190   0.304   1.696  1.00  0.00    -0.269 OA
ATOM      4  H   UNL     1      -0.376   0.799  -1.423  1.00  0.00     0.163 HD
ENDROOT
BRANCH   1   5
ATOM      5  C   UNL     1       1.059   1.172   0.141  1.00  0.00     0.135 C 
BRANCH   5   6
ATOM      6  C   UNL     1       2.046   0.024  -0.123  1.00  0.00     0.076 C 
ATOM      7  N   UNL     1       3.396   0.395   0.339  1.00  0.00    -0.299 NA
ATOM      8  C   UNL     1       4.000  -0.820   0.920  1.00  0.00     0.085 C 
ATOM      9  C   UNL     1       2.980  -1.945   0.842  1.00  0.00     0.017 C 
ATOM     10  C   UNL     1       1.662  -1.246   0.626  1.00  0.00     0.022 C 
BRANCH   7  11
ATOM     11  C   UNL     1       4.211   0.965  -0.754  1.00  0.00     0.081 C 
ATOM     12  C   UNL     1       5.420   1.709  -0.192  1.00  0.00     0.021 C 
ENDBRANCH   7  11
ENDBRANCH   5   6
ENDBRANCH   1   5
BRANCH   2  13
ATOM     13  C   UNL     1      -2.656   0.043  -0.149  1.00  0.00     0.124 A 
ATOM     14  C   UNL     1      -3.306  -1.144   0.255  1.00  0.00     0.135 A 
ATOM     15  C   UNL     1      -3.243   0.858  -1.146  1.00  0.00     0.149 A 
ATOM     16  C   UNL     1      -4.522  -1.508  -0.354  1.00  0.00     0.049 A 
ATOM     17  C   UNL     1      -4.439   0.459  -1.759  1.00  0.00     0.061 A 
ATOM     18  C   UNL     1      -5.075  -0.716  -1.359  1.00  0.00     0.023 A 
ATOM     19  Br  UNL     1      -5.238   1.532  -3.128  1.00  0.00    -0.047 Br
BRANCH  14  20
ATOM     20  O   UNL     1      -2.711  -1.947   1.244  1.00  0.00    -0.496 OA
ATOM     21  C   UNL     1      -3.254  -3.170   1.730  1.00  0.00     0.278 C 
ENDBRANCH  14  20
BRANCH  15  22
ATOM     22  O   UNL     1      -2.657   2.067  -1.536  1.00  0.00    -0.495 OA
ATOM     23  C   UNL     1      -2.654   3.210  -0.689  1.00  0.00     0.278 C 
ENDBRANCH  15  22
ENDBRANCH   2  13
TORSDOF 6
