REMARK SMILES N=C(N)NCCC[C@@H](NC(=O)[C@@H]1CCCN1C(=O)[C@@H]1CSSCCC(=O)N[C@@H](Cc2ccc(O)cc2)C(=O)N[C@@H](Cc2ccccc2)C(=O)N[C@@H](CCC(N)=O)C(=O)N[C@@H](CC(N)=O)C(=O)N1)C(=O)NCC(N)=O
REMARK SMILES IDX 20 1 19 2 67 3 65 4 66 5 60 7 59 8 57 9 58 10 51 12 52 13
REMARK SMILES IDX 53 14 54 15 55 16 56 19 50 20 48 21 49 23 40 24 41 25 42 26
REMARK SMILES IDX 43 27 47 28 44 29 46 30 45 31 39 32 37 33 38 35 61 37 62 38
REMARK SMILES IDX 63 39 64 40 17 43 18 44 16 45 15 46 12 47 14 48 13 49 10 50
REMARK SMILES IDX 11 51 9 52 8 54 7 55 6 56 5 57 4 58 2 59 3 61 1 62 68 66
REMARK SMILES IDX 69 67 70 68 71 70 72 71 73 72 74 73 21 76 22 77 23 78 24 79
REMARK SMILES IDX 25 80 27 81 26 82 28 84 29 86 30 87 31 88 36 89 32 90 35 91
REMARK SMILES IDX 33 92 34 93
REMARK H PARENT 67 6 59 11 55 17 55 18 50 22 39 34 63 41 63 42 9 53 4 60 3 63
REMARK H PARENT 3 64 1 65 70 69 73 74 73 75 27 83 34 94
REMARK Flexibility Score: 70.00
ROOT
ATOM      1  C   UNL     1       1.410   1.828  -1.190  1.00  0.00     0.116 C 
ENDROOT
BRANCH   1   2
ATOM      2  C   UNL     1       1.904   0.368  -1.242  1.00  0.00     0.182 C 
BRANCH   2   3
ATOM      3  N   UNL     1       0.815  -0.599  -1.434  1.00  0.00    -0.342 N 
ATOM      4  C   UNL     1      -0.419  -0.574  -0.704  1.00  0.00     0.243 C 
ATOM      5  O   UNL     1      -1.241   0.352  -0.918  1.00  0.00    -0.273 OA
ATOM      6  H   UNL     1       1.037  -1.465  -1.983  1.00  0.00     0.164 HD
BRANCH   4   7
ATOM      7  C   UNL     1      -0.824  -1.704   0.200  1.00  0.00     0.180 C 
BRANCH   7   8
ATOM      8  N   UNL     1      -1.185  -2.875  -0.608  1.00  0.00    -0.342 N 
ATOM      9  C   UNL     1      -2.213  -3.832  -0.295  1.00  0.00     0.243 C 
ATOM     10  O   UNL     1      -2.098  -4.993  -0.777  1.00  0.00    -0.273 OA
ATOM     11  H   UNL     1      -0.486  -3.180  -1.324  1.00  0.00     0.164 HD
BRANCH   9  12
ATOM     12  C   UNL     1      -3.446  -3.500   0.530  1.00  0.00     0.171 C 
BRANCH  12  13
ATOM     13  C   UNL     1      -3.761  -4.612   1.563  1.00  0.00     0.045 C 
BRANCH  13  14
ATOM     14  C   UNL     1      -4.513  -5.840   1.012  1.00  0.00     0.102 C 
BRANCH  14  15
ATOM     15  C   UNL     1      -4.694  -6.923   2.042  1.00  0.00     0.217 C 
ATOM     16  N   UNL     1      -5.376  -8.127   1.688  1.00  0.00    -0.370 N 
ATOM     17  H   UNL     1      -5.757  -8.259   0.725  1.00  0.00     0.159 HD
ATOM     18  H   UNL     1      -5.486  -8.893   2.387  1.00  0.00     0.159 HD
ATOM     19  O   UNL     1      -4.251  -6.786   3.213  1.00  0.00    -0.275 OA
ENDBRANCH  14  15
ENDBRANCH  13  14
ENDBRANCH  12  13
BRANCH  12  20
ATOM     20  N   UNL     1      -4.581  -3.235  -0.368  1.00  0.00    -0.342 N 
ATOM     21  C   UNL     1      -5.110  -1.925  -0.656  1.00  0.00     0.243 C 
ATOM     22  H   UNL     1      -4.845  -3.998  -1.029  1.00  0.00     0.164 HD
ATOM     23  O   UNL     1      -5.536  -1.696  -1.825  1.00  0.00    -0.273 OA
BRANCH  21  24
ATOM     24  C   UNL     1      -5.176  -0.822   0.387  1.00  0.00     0.175 C 
BRANCH  24  25
ATOM     25  C   UNL     1      -5.895  -1.271   1.683  1.00  0.00     0.070 C 
BRANCH  25  26
ATOM     26  C   UNL     1      -7.356  -1.614   1.480  1.00  0.00    -0.045 A 
ATOM     27  C   UNL     1      -8.352  -0.654   1.748  1.00  0.00     0.004 A 
ATOM     28  C   UNL     1      -7.735  -2.882   1.016  1.00  0.00     0.004 A 
ATOM     29  C   UNL     1      -9.699  -0.956   1.529  1.00  0.00     0.000 A 
ATOM     30  C   UNL     1      -9.083  -3.178   0.796  1.00  0.00     0.000 A 
ATOM     31  C   UNL     1     -10.066  -2.216   1.048  1.00  0.00     0.000 A 
ENDBRANCH  25  26
ENDBRANCH  24  25
BRANCH  24  32
ATOM     32  N   UNL     1      -5.830   0.380  -0.153  1.00  0.00    -0.342 N 
ATOM     33  C   UNL     1      -5.121   1.419  -0.848  1.00  0.00     0.243 CG0
ATOM     34  H   UNL     1      -6.874   0.430  -0.168  1.00  0.00     0.164 HD
ATOM     35  O   UNL     1      -4.035   1.156  -1.435  1.00  0.00    -0.273 OA
ATOM     36  G   UNL     1      -5.704   2.816  -0.894  1.00  0.00     0.000 G0
ENDBRANCH  24  32
ENDBRANCH  21  24
ENDBRANCH  12  20
ENDBRANCH   9  12
ENDBRANCH   7   8
BRANCH   7  37
ATOM     37  C   UNL     1       0.295  -2.057   1.198  1.00  0.00     0.134 C 
BRANCH  37  38
ATOM     38  C   UNL     1      -0.178  -3.036   2.230  1.00  0.00     0.220 C 
ATOM     39  N   UNL     1       0.268  -4.391   2.197  1.00  0.00    -0.370 N 
ATOM     40  O   UNL     1      -0.987  -2.665   3.122  1.00  0.00    -0.275 OA
ATOM     41  H   UNL     1       0.941  -4.717   1.467  1.00  0.00     0.159 HD
ATOM     42  H   UNL     1      -0.059  -5.069   2.921  1.00  0.00     0.159 HD
ENDBRANCH  37  38
ENDBRANCH   7  37
ENDBRANCH   4   7
ENDBRANCH   2   3
BRANCH   2  43
ATOM     43  C   UNL     1       2.695   0.005  -0.006  1.00  0.00     0.246 C 
ATOM     44  O   UNL     1       2.441   0.590   1.084  1.00  0.00    -0.272 OA
BRANCH  43  45
ATOM     45  N   UNL     1       3.729  -1.002  -0.043  1.00  0.00    -0.329 N 
ATOM     46  C   UNL     1       3.923  -1.932  -1.149  1.00  0.00     0.120 C 
ATOM     47  C   UNL     1       4.530  -1.360   1.128  1.00  0.00     0.174 C 
ATOM     48  C   UNL     1       5.066  -2.841  -0.728  1.00  0.00     0.024 C 
ATOM     49  C   UNL     1       5.125  -2.730   0.792  1.00  0.00     0.037 C 
BRANCH  47  50
ATOM     50  C   UNL     1       5.631  -0.353   1.406  1.00  0.00     0.243 C 
ATOM     51  O   UNL     1       6.400  -0.573   2.380  1.00  0.00    -0.273 OA
ATOM     52  N   UNL     1       5.817   0.827   0.601  1.00  0.00    -0.343 N 
ATOM     53  H   UNL     1       5.042   1.165  -0.012  1.00  0.00     0.164 HD
BRANCH  52  54
ATOM     54  C   UNL     1       7.107   1.520   0.469  1.00  0.00     0.171 C 
BRANCH  54  55
ATOM     55  C   UNL     1       8.168   0.565  -0.123  1.00  0.00     0.037 C 
BRANCH  55  56
ATOM     56  C   UNL     1       7.796   0.149  -1.557  1.00  0.00     0.024 C 
BRANCH  56  57
ATOM     57  C   UNL     1       8.761  -0.903  -2.117  1.00  0.00     0.116 C 
BRANCH  57  58
ATOM     58  N   UNL     1      10.105  -0.351  -2.285  1.00  0.00    -0.357 N 
ATOM     59  C   UNL     1      10.454   0.549  -3.347  1.00  0.00     0.185 C 
ATOM     60  H   UNL     1      10.851  -0.655  -1.616  1.00  0.00     0.163 HD
ATOM     61  N   UNL     1      11.762   1.128  -3.382  1.00  0.00    -0.370 N 
ATOM     62  N   UNL     1       9.599   0.822  -4.283  1.00  0.00    -0.270 NA
ATOM     63  H   UNL     1      12.451   0.922  -2.625  1.00  0.00     0.159 HD
ATOM     64  H   UNL     1      12.050   1.751  -4.168  1.00  0.00     0.159 HD
ATOM     65  H   UNL     1       9.832   1.468  -5.068  1.00  0.00     0.191 HD
ENDBRANCH  57  58
ENDBRANCH  56  57
ENDBRANCH  55  56
ENDBRANCH  54  55
BRANCH  54  66
ATOM     66  C   UNL     1       7.553   2.132   1.781  1.00  0.00     0.243 C 
ATOM     67  O   UNL     1       6.760   2.162   2.764  1.00  0.00    -0.273 OA
ATOM     68  N   UNL     1       8.834   2.772   1.888  1.00  0.00    -0.345 N 
ATOM     69  H   UNL     1       9.383   2.974   1.021  1.00  0.00     0.164 HD
BRANCH  68  70
ATOM     70  C   UNL     1       9.402   3.180   3.170  1.00  0.00     0.215 C 
BRANCH  70  71
ATOM     71  C   UNL     1       9.701   1.989   4.029  1.00  0.00     0.236 C 
ATOM     72  N   UNL     1       9.587   2.083   5.449  1.00  0.00    -0.368 N 
ATOM     73  O   UNL     1      10.102   0.914   3.505  1.00  0.00    -0.273 OA
ATOM     74  H   UNL     1       9.811   1.259   6.051  1.00  0.00     0.159 HD
ATOM     75  H   UNL     1       9.301   2.981   5.901  1.00  0.00     0.159 HD
ENDBRANCH  70  71
ENDBRANCH  68  70
ENDBRANCH  54  66
ENDBRANCH  52  54
ENDBRANCH  47  50
ENDBRANCH  43  45
ENDBRANCH   2  43
ENDBRANCH   1   2
BRANCH   1  76
ATOM     76  S   UNL     1       0.502   2.286  -2.712  1.00  0.00    -0.091 SA
BRANCH  76  77
ATOM     77  S   UNL     1      -0.237   4.138  -1.923  1.00  0.00    -0.094 SA
BRANCH  77  78
ATOM     78  C   UNL     1      -1.712   3.365  -1.181  1.00  0.00     0.091 C 
BRANCH  78  79
ATOM     79  C   UNL     1      -2.701   4.407  -0.668  1.00  0.00     0.112 C 
BRANCH  79  80
ATOM     80  C   UNL     1      -3.652   3.798   0.332  1.00  0.00     0.221 C 
ATOM     81  N   UNL     1      -5.064   3.706   0.089  1.00  0.00    -0.344 N 
ATOM     82  O   UNL     1      -3.210   3.474   1.465  1.00  0.00    -0.275 OA
ATOM     83  H   UNL     1      -5.679   4.079   0.849  1.00  0.00     0.164 HD
BRANCH  81  84
ATOM     84  C   UNL     1      -5.704   2.816  -0.894  1.00  0.00     0.175 CG0
ATOM     85  G   UNL     1      -5.121   1.419  -0.848  1.00  0.00     0.000 G0
BRANCH  84  86
ATOM     86  C   UNL     1      -5.701   3.421  -2.314  1.00  0.00     0.070 C 
BRANCH  86  87
ATOM     87  C   UNL     1      -6.354   4.786  -2.346  1.00  0.00    -0.045 A 
ATOM     88  C   UNL     1      -5.630   5.919  -2.763  1.00  0.00     0.007 A 
ATOM     89  C   UNL     1      -7.694   4.946  -1.951  1.00  0.00     0.007 A 
ATOM     90  C   UNL     1      -6.216   7.191  -2.724  1.00  0.00     0.046 A 
ATOM     91  C   UNL     1      -8.274   6.217  -1.908  1.00  0.00     0.046 A 
ATOM     92  C   UNL     1      -7.533   7.345  -2.279  1.00  0.00     0.115 A 
BRANCH  92  93
ATOM     93  O   UNL     1      -8.095   8.618  -2.214  1.00  0.00    -0.508 OA
ATOM     94  H   UNL     1      -9.041   8.760  -1.882  1.00  0.00     0.293 HD
ENDBRANCH  92  93
ENDBRANCH  86  87
ENDBRANCH  84  86
ENDBRANCH  81  84
ENDBRANCH  79  80
ENDBRANCH  78  79
ENDBRANCH  77  78
ENDBRANCH  76  77
ENDBRANCH   1  76
TORSDOF 21
