REMARK SMILES O=C(O)CCCC[C@@H]1CCSS1
REMARK SMILES IDX 5 1 4 2 2 3 1 4 3 5 6 7 7 8 8 9 9 10 12 11 10 12 11 13
REMARK H PARENT 3 6
REMARK Flexibility Score: inf
ROOT
ATOM      1  C   UNL     1       1.907  -0.788   0.361  1.00  0.00     0.012 C 
ENDROOT
BRANCH   1   2
ATOM      2  C   UNL     1       2.576   0.481  -0.184  1.00  0.00     0.122 C 
BRANCH   2   3
ATOM      3  C   UNL     1       4.001   0.204  -0.547  1.00  0.00     0.303 C 
ATOM      4  O   UNL     1       4.290  -0.209  -1.702  1.00  0.00    -0.252 OA
BRANCH   3   5
ATOM      5  O   UNL     1       5.002   0.361   0.407  1.00  0.00    -0.481 OA
ATOM      6  H   UNL     1       5.969   0.163   0.182  1.00  0.00     0.296 HD
ENDBRANCH   3   5
ENDBRANCH   2   3
ENDBRANCH   1   2
BRANCH   1   7
ATOM      7  C   UNL     1       0.484  -0.529   0.879  1.00  0.00     0.002 C 
BRANCH   7   8
ATOM      8  C   UNL     1      -0.516  -0.242  -0.255  1.00  0.00     0.015 C 
BRANCH   8   9
ATOM      9  C   UNL     1      -1.965  -0.155   0.257  1.00  0.00     0.059 C 
ATOM     10  C   UNL     1      -2.963  -0.142  -0.907  1.00  0.00     0.027 C 
ATOM     11  S   UNL     1      -2.199   1.315   1.331  1.00  0.00    -0.091 SA
ATOM     12  C   UNL     1      -4.225   0.574  -0.472  1.00  0.00     0.083 C 
ATOM     13  S   UNL     1      -3.719   2.198   0.127  1.00  0.00    -0.094 SA
ENDBRANCH   8   9
ENDBRANCH   7   8
ENDBRANCH   1   7
TORSDOF 6
