REMARK SMILES CN(C)CCc1c[nH]c2ccc(Cn3cncn3)cc12
REMARK SMILES IDX 6 1 7 2 8 3 9 4 20 5 19 6 12 7 11 8 10 9 5 11 4 12 2 13 1 14
REMARK SMILES IDX 3 15 13 16 14 17 15 18 18 19 16 20 17 21
REMARK H PARENT 8 10
REMARK Flexibility Score: inf
ROOT
ATOM      1  C   UNL     1      -1.446  -1.436  -0.285  1.00  0.00    -0.021 A 
ATOM      2  C   UNL     1      -1.906  -2.223   0.766  1.00  0.00     0.087 A 
ATOM      3  N   UNL     1      -0.867  -2.775   1.432  1.00  0.00    -0.361 N 
ATOM      4  C   UNL     1       0.245  -2.332   0.818  1.00  0.00     0.046 A 
ATOM      5  C   UNL     1      -0.068  -1.510  -0.232  1.00  0.00     0.003 A 
ATOM      6  C   UNL     1       0.917  -0.896  -1.005  1.00  0.00     0.016 A 
ATOM      7  C   UNL     1       2.267  -1.154  -0.685  1.00  0.00    -0.026 A 
ATOM      8  C   UNL     1       2.585  -1.998   0.410  1.00  0.00     0.008 A 
ATOM      9  C   UNL     1       1.566  -2.600   1.170  1.00  0.00     0.027 A 
ATOM     10  H   UNL     1      -0.921  -3.398   2.268  1.00  0.00     0.166 HD
ENDROOT
BRANCH   1  11
ATOM     11  C   UNL     1      -2.281  -0.587  -1.199  1.00  0.00     0.053 C 
BRANCH  11  12
ATOM     12  C   UNL     1      -2.284   0.882  -0.753  1.00  0.00     0.088 C 
BRANCH  12  13
ATOM     13  N   UNL     1      -2.719   1.021   0.655  1.00  0.00    -0.309 NA
ATOM     14  C   UNL     1      -4.188   0.988   0.762  1.00  0.00     0.104 C 
ATOM     15  C   UNL     1      -2.214   2.283   1.220  1.00  0.00     0.104 C 
ENDBRANCH  12  13
ENDBRANCH  11  12
ENDBRANCH   1  11
BRANCH   7  16
ATOM     16  C   UNL     1       3.361  -0.469  -1.454  1.00  0.00     0.181 C 
BRANCH  16  17
ATOM     17  N   UNL     1       3.595   0.860  -0.901  1.00  0.00    -0.249 N 
ATOM     18  C   UNL     1       4.398   1.174   0.129  1.00  0.00     0.220 A 
ATOM     19  N   UNL     1       2.957   1.951  -1.280  1.00  0.00    -0.160 NA
ATOM     20  N   UNL     1       4.312   2.484   0.428  1.00  0.00    -0.224 NA
ATOM     21  C   UNL     1       3.408   2.931  -0.472  1.00  0.00     0.246 A 
ENDBRANCH  16  17
ENDBRANCH   7  16
TORSDOF 5
