REMARK SMILES COc1ccc2c3c1O[C@H]1[C@@H](O)C=C[C@H]4[C@@H](C2)N(C)CC[C@@]341
REMARK SMILES IDX 15 1 14 2 13 3 11 4 10 5 9 6 8 7 7 8 6 9 17 10 16 11 18 12
REMARK SMILES IDX 19 13 20 14 21 15 22 16 5 17 4 18 3 19 12 20 2 22 1 23
REMARK H PARENT 12 21
REMARK Flexibility Score: inf
ROOT
ATOM      1  C   UNL     1      -1.497   0.605  -0.794  1.00  0.00     0.044 C 
ATOM      2  C   UNL     1      -0.787   0.735  -2.125  1.00  0.00    -0.022 C 
ATOM      3  C   UNL     1       0.074   1.745  -2.314  1.00  0.00     0.004 C 
ATOM      4  C   UNL     1       0.277   2.786  -1.230  1.00  0.00     0.178 C 
ATOM      5  C   UNL     1       0.402   2.157   0.186  1.00  0.00     0.217 C 
ATOM      6  O   UNL     1       1.734   1.681   0.421  1.00  0.00    -0.482 OA
ATOM      7  C   UNL     1       1.755   0.304   0.472  1.00  0.00     0.165 A 
ATOM      8  C   UNL     1       0.496  -0.207   0.389  1.00  0.00     0.012 A 
ATOM      9  C   UNL     1       0.279  -1.537   0.021  1.00  0.00    -0.039 A 
ATOM     10  C   UNL     1      -1.029  -1.928  -0.628  1.00  0.00     0.055 C 
ATOM     11  C   UNL     1      -2.109  -0.813  -0.533  1.00  0.00     0.068 C 
ATOM     12  N   UNL     1      -2.728  -0.924   0.823  1.00  0.00    -0.302 NA
ATOM     13  C   UNL     1      -4.091  -1.472   0.752  1.00  0.00     0.105 C 
ATOM     14  C   UNL     1      -2.713   0.314   1.629  1.00  0.00     0.085 C 
ATOM     15  C   UNL     1      -1.299   0.921   1.725  1.00  0.00     0.032 C 
ATOM     16  C   UNL     1      -0.523   0.892   0.371  1.00  0.00     0.048 C 
ATOM     17  C   UNL     1       1.388  -2.403   0.007  1.00  0.00     0.008 A 
ATOM     18  C   UNL     1       2.681  -1.905   0.273  1.00  0.00     0.051 A 
ATOM     19  C   UNL     1       2.883  -0.517   0.467  1.00  0.00     0.161 A 
ENDROOT
BRANCH   4  20
ATOM     20  O   UNL     1       1.372   3.618  -1.520  1.00  0.00    -0.385 OA
ATOM     21  H   UNL     1       2.166   3.036  -1.654  1.00  0.00     0.211 HD
ENDBRANCH   4  20
BRANCH  19  22
ATOM     22  O   UNL     1       4.152   0.059   0.616  1.00  0.00    -0.493 OA
ATOM     23  C   UNL     1       5.369  -0.679   0.609  1.00  0.00     0.278 C 
ENDBRANCH  19  22
TORSDOF 2
