REMARK SMILES OCCN(CCO)c1nc(N2CCCCC2)c2nc(N(CCO)CCO)nc(N3CCCCC3)c2n1
REMARK SMILES IDX 8 1 36 2 35 3 17 4 18 5 19 6 27 7 28 8 10 9 9 10 4 11 3 12
REMARK SMILES IDX 2 13 1 14 5 16 6 17 7 18 11 20 12 21 16 22 13 23 15 24 14 25
REMARK SMILES IDX 29 26 30 27 34 28 31 29 33 30 32 31 20 32 21 33 22 34 23 35
REMARK SMILES IDX 24 37 25 38 26 39
REMARK H PARENT 1 15 7 19 23 36 26 40
REMARK Flexibility Score: inf
ROOT
ATOM      1  C   UNL     1       2.318   0.514   0.185  1.00  0.00     0.228 A 
ATOM      2  N   UNL     1       1.238   1.339   0.167  1.00  0.00    -0.207 NA
ATOM      3  C   UNL     1      -0.023   0.835   0.111  1.00  0.00     0.139 A 
ATOM      4  C   UNL     1      -0.216  -0.552   0.049  1.00  0.00     0.139 A 
ATOM      5  N   UNL     1      -1.468  -1.053  -0.103  1.00  0.00    -0.207 NA
ATOM      6  C   UNL     1      -2.554  -0.239  -0.178  1.00  0.00     0.228 A 
ATOM      7  N   UNL     1      -2.383   1.108  -0.084  1.00  0.00    -0.193 NA
ATOM      8  C   UNL     1      -1.152   1.669   0.065  1.00  0.00     0.161 A 
ATOM      9  C   UNL     1       0.906  -1.391   0.101  1.00  0.00     0.161 A 
ATOM     10  N   UNL     1       2.145  -0.834   0.160  1.00  0.00    -0.193 NA
ENDROOT
BRANCH   1  11
ATOM     11  N   UNL     1       3.638   1.064   0.224  1.00  0.00    -0.336 N 
BRANCH  11  12
ATOM     12  C   UNL     1       4.209   1.462   1.515  1.00  0.00     0.148 C 
BRANCH  12  13
ATOM     13  C   UNL     1       5.207   0.420   2.013  1.00  0.00     0.177 C 
BRANCH  13  14
ATOM     14  O   UNL     1       4.563  -0.811   2.196  1.00  0.00    -0.395 OA
ATOM     15  H   UNL     1       5.278  -1.462   2.421  1.00  0.00     0.210 HD
ENDBRANCH  13  14
ENDBRANCH  12  13
ENDBRANCH  11  12
BRANCH  11  16
ATOM     16  C   UNL     1       4.366   1.293  -1.028  1.00  0.00     0.148 C 
BRANCH  16  17
ATOM     17  C   UNL     1       4.704  -0.029  -1.719  1.00  0.00     0.177 C 
BRANCH  17  18
ATOM     18  O   UNL     1       5.429   0.232  -2.889  1.00  0.00    -0.395 OA
ATOM     19  H   UNL     1       5.589  -0.650  -3.314  1.00  0.00     0.210 HD
ENDBRANCH  17  18
ENDBRANCH  16  17
ENDBRANCH  11  16
ENDBRANCH   1  11
BRANCH   9  20
ATOM     20  N   UNL     1       0.771  -2.823   0.078  1.00  0.00    -0.355 N 
ATOM     21  C   UNL     1      -0.096  -3.516   1.039  1.00  0.00     0.118 C 
ATOM     22  C   UNL     1       1.637  -3.639  -0.780  1.00  0.00     0.118 C 
ATOM     23  C   UNL     1       0.746  -4.454   1.912  1.00  0.00     0.022 C 
ATOM     24  C   UNL     1       2.494  -4.570   0.085  1.00  0.00     0.022 C 
ATOM     25  C   UNL     1       1.612  -5.379   1.046  1.00  0.00     0.004 C 
ENDBRANCH   9  20
BRANCH   8  26
ATOM     26  N   UNL     1      -1.036   3.100   0.144  1.00  0.00    -0.355 N 
ATOM     27  C   UNL     1      -0.232   3.745   1.189  1.00  0.00     0.118 C 
ATOM     28  C   UNL     1      -1.649   3.945  -0.889  1.00  0.00     0.118 C 
ATOM     29  C   UNL     1      -1.030   4.881   1.840  1.00  0.00     0.022 C 
ATOM     30  C   UNL     1      -2.455   5.070  -0.235  1.00  0.00     0.022 C 
ATOM     31  C   UNL     1      -1.597   5.834   0.781  1.00  0.00     0.004 C 
ENDBRANCH   8  26
BRANCH   6  32
ATOM     32  N   UNL     1      -3.875  -0.802  -0.354  1.00  0.00    -0.336 N 
BRANCH  32  33
ATOM     33  C   UNL     1      -5.074   0.044  -0.228  1.00  0.00     0.148 C 
BRANCH  33  34
ATOM     34  C   UNL     1      -5.225   0.985  -1.431  1.00  0.00     0.177 C 
BRANCH  34  35
ATOM     35  O   UNL     1      -6.513   1.540  -1.446  1.00  0.00    -0.395 OA
ATOM     36  H   UNL     1      -7.097   0.883  -1.912  1.00  0.00     0.210 HD
ENDBRANCH  34  35
ENDBRANCH  33  34
ENDBRANCH  32  33
BRANCH  32  37
ATOM     37  C   UNL     1      -4.034  -2.256  -0.539  1.00  0.00     0.148 C 
BRANCH  37  38
ATOM     38  C   UNL     1      -3.889  -2.638  -2.015  1.00  0.00     0.177 C 
BRANCH  38  39
ATOM     39  O   UNL     1      -2.600  -2.354  -2.486  1.00  0.00    -0.395 OA
ATOM     40  H   UNL     1      -2.010  -3.076  -2.147  1.00  0.00     0.210 HD
ENDBRANCH  38  39
ENDBRANCH  37  38
ENDBRANCH  32  37
ENDBRANCH   6  32
TORSDOF 16
