REMARK SMILES C[C@]12CCC(=O)C=C1CC[C@H]1[C@@H]3CC[C@](O)(C(=O)CO)[C@@]3(C)C[C@H](O)[C@@]12F
REMARK SMILES IDX 17 1 18 2 15 3 12 4 13 5 21 6 11 7 14 8 22 9 23 10 26 11
REMARK SMILES IDX 10 12 24 13 27 14 2 15 9 16 8 17 3 18 1 19 7 20 4 21 5 22
REMARK SMILES IDX 6 23 16 24 25 26 19 28 20 29
REMARK H PARENT 16 25 25 27 20 30
REMARK Flexibility Score: inf
ROOT
ATOM      1  C   UNL     1      -4.393   0.863   0.355  1.00  0.00     0.190 C 
ATOM      2  O   UNL     1      -4.248   1.546   1.357  1.00  0.00    -0.294 OA
ENDROOT
BRANCH   1   3
ATOM      3  C   UNL     1      -3.278  -0.099  -0.075  1.00  0.00     0.131 C 
ATOM      4  C   UNL     1      -1.015  -0.531  -0.700  1.00  0.00     0.005 C 
ATOM      5  C   UNL     1      -1.769  -0.502  -2.022  1.00  0.00     0.008 C 
ATOM      6  C   UNL     1      -1.819   0.402   0.219  1.00  0.00     0.009 C 
ATOM      7  C   UNL     1       0.509  -0.251  -0.703  1.00  0.00     0.034 C 
ATOM      8  C   UNL     1      -3.244  -0.324  -1.616  1.00  0.00     0.044 C 
ATOM      9  C   UNL     1      -1.691   1.914  -0.185  1.00  0.00     0.015 C 
ATOM     10  C   UNL     1      -1.303   0.187   1.669  1.00  0.00     0.045 C 
ATOM     11  C   UNL     1       1.061  -0.413   0.760  1.00  0.00     0.148 C 
ATOM     12  C   UNL     1       1.229  -1.232  -1.651  1.00  0.00     0.012 C 
ATOM     13  C   UNL     1       0.229   0.427   1.798  1.00  0.00     0.153 C 
ATOM     14  F   UNL     1       0.848  -1.744   1.110  1.00  0.00    -0.240 F 
ATOM     15  C   UNL     1       2.632  -0.177   0.833  1.00  0.00     0.026 C 
ATOM     16  C   UNL     1       2.738  -1.008  -1.650  1.00  0.00     0.032 C 
ATOM     17  C   UNL     1       3.300  -1.041  -0.247  1.00  0.00    -0.057 C 
ATOM     18  C   UNL     1       3.150  -0.589   2.253  1.00  0.00     0.023 C 
ATOM     19  C   UNL     1       3.049   1.296   0.562  1.00  0.00     0.020 C 
ATOM     20  C   UNL     1       4.489  -1.639  -0.046  1.00  0.00     0.047 C 
ATOM     21  C   UNL     1       4.676  -0.683   2.334  1.00  0.00     0.081 C 
ATOM     22  C   UNL     1       5.198  -1.554   1.238  1.00  0.00     0.155 C 
ATOM     23  O   UNL     1       6.286  -2.169   1.392  1.00  0.00    -0.295 OA
BRANCH   3  24
ATOM     24  O   UNL     1      -3.507  -1.355   0.530  1.00  0.00    -0.381 OA
ATOM     25  H   UNL     1      -3.704  -1.211   1.492  1.00  0.00     0.212 HD
ENDBRANCH   3  24
BRANCH  13  26
ATOM     26  O   UNL     1       0.509   1.797   1.700  1.00  0.00    -0.390 OA
ATOM     27  H   UNL     1       0.207   2.219   2.547  1.00  0.00     0.211 HD
ENDBRANCH  13  26
ENDBRANCH   1   3
BRANCH   1  28
ATOM     28  C   UNL     1      -5.741   0.880  -0.321  1.00  0.00     0.234 C 
BRANCH  28  29
ATOM     29  O   UNL     1      -5.982   2.140  -0.885  1.00  0.00    -0.388 OA
ATOM     30  H   UNL     1      -5.438   2.190  -1.713  1.00  0.00     0.211 HD
ENDBRANCH  28  29
ENDBRANCH   1  28
TORSDOF 5
