REMARK SMILES C[N+](C)(C)CCOC(=O)CCC(=O)OCC[N+](C)(C)C
REMARK SMILES IDX 10 1 8 2 9 3 7 4 6 5 5 6 2 7 1 8 3 9 4 10 11 11 12 12 13 13
REMARK SMILES IDX 14 14 15 15 16 16 17 17 18 18 19 19 20 20
REMARK H PARENT
REMARK Flexibility Score: inf
ROOT
ATOM      1  C   UNL     1       0.290   0.947   0.221  1.00  0.00     0.134 C 
ENDROOT
BRANCH   1   2
ATOM      2  C   UNL     1       1.536   0.157  -0.018  1.00  0.00     0.306 C 
ATOM      3  O   UNL     1       1.628  -0.573  -1.043  1.00  0.00    -0.252 OA
BRANCH   2   4
ATOM      4  O   UNL     1       2.567   0.198   0.928  1.00  0.00    -0.460 OA
BRANCH   4   5
ATOM      5  C   UNL     1       3.798  -0.507   0.778  1.00  0.00     0.294 C 
BRANCH   5   6
ATOM      6  C   UNL     1       4.712   0.227  -0.227  1.00  0.00     0.305 C 
BRANCH   6   7
ATOM      7  N   UNL     1       6.034  -0.423  -0.480  1.00  0.00    -0.328 N 
ATOM      8  C   UNL     1       6.829  -0.536   0.766  1.00  0.00     0.334 C 
ATOM      9  C   UNL     1       6.786   0.429  -1.435  1.00  0.00     0.334 C 
ATOM     10  C   UNL     1       5.866  -1.765  -1.088  1.00  0.00     0.334 C 
ENDBRANCH   6   7
ENDBRANCH   5   6
ENDBRANCH   4   5
ENDBRANCH   2   4
ENDBRANCH   1   2
BRANCH   1  11
ATOM     11  C   UNL     1      -0.666   0.172   1.129  1.00  0.00     0.134 C 
BRANCH  11  12
ATOM     12  C   UNL     1      -1.920   0.954   1.355  1.00  0.00     0.306 C 
ATOM     13  O   UNL     1      -2.006   1.732   2.344  1.00  0.00    -0.252 OA
BRANCH  12  14
ATOM     14  O   UNL     1      -2.970   0.844   0.439  1.00  0.00    -0.460 OA
BRANCH  14  15
ATOM     15  C   UNL     1      -4.197   1.553   0.584  1.00  0.00     0.294 C 
BRANCH  15  16
ATOM     16  C   UNL     1      -5.147   1.233  -0.589  1.00  0.00     0.305 C 
BRANCH  16  17
ATOM     17  N   UNL     1      -5.851  -0.085  -0.517  1.00  0.00    -0.328 N 
ATOM     18  C   UNL     1      -4.896  -1.212  -0.390  1.00  0.00     0.334 C 
ATOM     19  C   UNL     1      -6.813  -0.119   0.613  1.00  0.00     0.334 C 
ATOM     20  C   UNL     1      -6.615  -0.263  -1.777  1.00  0.00     0.334 C 
ENDBRANCH  16  17
ENDBRANCH  15  16
ENDBRANCH  14  15
ENDBRANCH  12  14
ENDBRANCH  11  12
ENDBRANCH   1  11
TORSDOF 11
