REMARK SMILES CN1C(C(=O)Nc2ccccn2)=C(O)c2sccc2S1(=O)=O
REMARK SMILES IDX 1 1 2 2 3 3 13 4 15 5 19 6 18 7 17 8 16 9 20 10 21 11 22 12
REMARK SMILES IDX 4 13 5 14 6 15 7 17 8 18 12 19 9 20 11 21 10 22 14 23
REMARK H PARENT 6 16 14 24
REMARK Flexibility Score: inf
ROOT
ATOM      1  C   UNL     1       0.883  -1.690   2.149  1.00  0.00     0.164 C 
ATOM      2  N   UNL     1       1.517  -1.112   0.961  1.00  0.00    -0.260 N 
ATOM      3  C   UNL     1       0.719  -0.448  -0.059  1.00  0.00     0.160 C 
ATOM      4  C   UNL     1       1.267   0.188  -1.129  1.00  0.00     0.164 C 
ATOM      5  C   UNL     1       2.730   0.277  -1.345  1.00  0.00     0.092 A 
ATOM      6  C   UNL     1       3.697  -0.293  -0.547  1.00  0.00     0.109 A 
ATOM      7  C   UNL     1       5.012  -0.070  -0.969  1.00  0.00     0.035 A 
ATOM      8  C   UNL     1       5.085   0.692  -2.128  1.00  0.00     0.067 A 
ATOM      9  S   UNL     1       3.516   1.073  -2.605  1.00  0.00    -0.139 S 
ATOM     10  S   UNL     1       3.247  -1.200   0.854  1.00  0.00     0.265 S 
ATOM     11  O   UNL     1       3.679  -2.631   0.703  1.00  0.00    -0.201 OA
ATOM     12  O   UNL     1       3.869  -0.586   2.077  1.00  0.00    -0.201 OA
ENDROOT
BRANCH   3  13
ATOM     13  C   UNL     1      -0.756  -0.469   0.064  1.00  0.00     0.278 C 
ATOM     14  O   UNL     1      -1.360  -1.574   0.026  1.00  0.00    -0.267 OA
ATOM     15  N   UNL     1      -1.488   0.762   0.195  1.00  0.00    -0.305 N 
ATOM     16  H   UNL     1      -0.990   1.658  -0.008  1.00  0.00     0.171 HD
BRANCH  15  17
ATOM     17  C   UNL     1      -2.888   0.842   0.504  1.00  0.00     0.132 A 
ATOM     18  C   UNL     1      -3.508  -0.083   1.362  1.00  0.00     0.047 A 
ATOM     19  N   UNL     1      -3.616   1.877   0.002  1.00  0.00    -0.239 NA
ATOM     20  C   UNL     1      -4.866   0.056   1.655  1.00  0.00     0.005 A 
ATOM     21  C   UNL     1      -4.939   2.030   0.277  1.00  0.00     0.113 A 
ATOM     22  C   UNL     1      -5.591   1.115   1.106  1.00  0.00     0.020 A 
ENDBRANCH  15  17
ENDBRANCH   3  13
BRANCH   4  23
ATOM     23  O   UNL     1       0.417   0.770  -2.074  1.00  0.00    -0.504 OA
ATOM     24  H   UNL     1       0.764   1.252  -2.894  1.00  0.00     0.293 HD
ENDBRANCH   4  23
TORSDOF 3
