REMARK SMILES COC(=O)Nc1nc2ccc(C(=O)c3ccccc3)cc2[nH]1
REMARK SMILES IDX 6 1 7 2 8 3 21 4 22 5 20 6 11 7 10 8 9 9 5 11 3 12 4 13 2 15
REMARK SMILES IDX 1 16 12 17 13 18 14 19 15 20 19 21 16 22 18 23 17 24
REMARK H PARENT 22 10 5 14
REMARK Flexibility Score: inf
ROOT
ATOM      1  C   UNL     1      -2.978   0.264  -0.688  1.00  0.00     0.210 A 
ATOM      2  N   UNL     1      -2.459  -0.262   0.454  1.00  0.00    -0.213 NA
ATOM      3  C   UNL     1      -1.150   0.025   0.340  1.00  0.00     0.091 A 
ATOM      4  C   UNL     1      -0.908   0.695  -0.821  1.00  0.00     0.068 A 
ATOM      5  N   UNL     1      -2.057   0.855  -1.488  1.00  0.00    -0.324 N 
ATOM      6  C   UNL     1       0.369   1.115  -1.185  1.00  0.00     0.040 A 
ATOM      7  C   UNL     1       1.439   0.817  -0.309  1.00  0.00     0.025 A 
ATOM      8  C   UNL     1       1.175   0.131   0.909  1.00  0.00     0.014 A 
ATOM      9  C   UNL     1      -0.132  -0.276   1.238  1.00  0.00     0.031 A 
ATOM     10  H   UNL     1      -2.208   1.327  -2.407  1.00  0.00     0.170 HD
ENDROOT
BRANCH   1  11
ATOM     11  N   UNL     1      -4.370   0.207  -1.030  1.00  0.00    -0.261 N 
ATOM     12  C   UNL     1      -5.374  -0.408  -0.212  1.00  0.00     0.413 C 
ATOM     13  O   UNL     1      -5.069  -0.949   0.886  1.00  0.00    -0.224 OA
ATOM     14  H   UNL     1      -4.673   0.641  -1.930  1.00  0.00     0.176 HD
BRANCH  12  15
ATOM     15  O   UNL     1      -6.702  -0.402  -0.649  1.00  0.00    -0.453 OA
ATOM     16  C   UNL     1      -7.759  -0.990   0.101  1.00  0.00     0.284 C 
ENDBRANCH  12  15
ENDBRANCH   1  11
BRANCH   7  17
ATOM     17  C   UNL     1       2.812   1.262  -0.649  1.00  0.00     0.193 C 
ATOM     18  O   UNL     1       2.960   2.329  -1.305  1.00  0.00    -0.289 OA
BRANCH  17  19
ATOM     19  C   UNL     1       4.017   0.498  -0.245  1.00  0.00     0.022 A 
ATOM     20  C   UNL     1       3.994  -0.908  -0.174  1.00  0.00     0.012 A 
ATOM     21  C   UNL     1       5.220   1.174   0.028  1.00  0.00     0.012 A 
ATOM     22  C   UNL     1       5.143  -1.617   0.190  1.00  0.00     0.001 A 
ATOM     23  C   UNL     1       6.366   0.461   0.393  1.00  0.00     0.001 A 
ATOM     24  C   UNL     1       6.327  -0.933   0.476  1.00  0.00     0.000 A 
ENDBRANCH  17  19
ENDBRANCH   7  17
TORSDOF 4
