REMARK SMILES CCC(=O)N(c1ccccc1)C1(COC)CCN(CCc2cccs2)CC1
REMARK SMILES IDX 12 1 16 2 17 3 18 4 26 5 27 6 5 7 3 8 4 9 2 10 1 11 6 12
REMARK SMILES IDX 7 13 11 14 8 15 10 16 9 17 13 18 14 19 15 20 19 21 20 22
REMARK SMILES IDX 21 23 22 24 25 25 23 26 24 27
REMARK H PARENT
REMARK Flexibility Score: inf
ROOT
ATOM      1  C   UNL     1      -0.861  -0.081  -0.747  1.00  0.00     0.073 C 
ATOM      2  C   UNL     1       0.183  -1.229  -0.512  1.00  0.00     0.047 C 
ATOM      3  C   UNL     1       1.074  -0.943   0.703  1.00  0.00     0.087 C 
ATOM      4  N   UNL     1       1.909   0.274   0.519  1.00  0.00    -0.303 NA
ATOM      5  C   UNL     1       1.296   1.283  -0.384  1.00  0.00     0.087 C 
ATOM      6  C   UNL     1      -0.235   1.277  -0.278  1.00  0.00     0.047 C 
ENDROOT
BRANCH   1   7
ATOM      7  N   UNL     1      -2.130  -0.337   0.002  1.00  0.00    -0.304 N 
BRANCH   7   8
ATOM      8  C   UNL     1      -2.675  -1.657   0.159  1.00  0.00     0.227 C 
ATOM      9  O   UNL     1      -3.391  -2.154  -0.752  1.00  0.00    -0.275 OA
BRANCH   8  10
ATOM     10  C   UNL     1      -2.477  -2.409   1.441  1.00  0.00     0.097 C 
ATOM     11  C   UNL     1      -3.745  -2.382   2.289  1.00  0.00     0.014 C 
ENDBRANCH   8  10
ENDBRANCH   7   8
BRANCH   7  12
ATOM     12  C   UNL     1      -3.026   0.733   0.350  1.00  0.00     0.044 A 
ATOM     13  C   UNL     1      -3.970   1.207  -0.577  1.00  0.00     0.026 A 
ATOM     14  C   UNL     1      -3.015   1.256   1.652  1.00  0.00     0.026 A 
ATOM     15  C   UNL     1      -4.851   2.231  -0.219  1.00  0.00     0.002 A 
ATOM     16  C   UNL     1      -3.904   2.274   2.009  1.00  0.00     0.002 A 
ATOM     17  C   UNL     1      -4.814   2.769   1.071  1.00  0.00     0.000 A 
ENDBRANCH   7  12
ENDBRANCH   1   7
BRANCH   1  18
ATOM     18  C   UNL     1      -1.165   0.008  -2.266  1.00  0.00     0.188 C 
BRANCH  18  19
ATOM     19  O   UNL     1      -1.681  -1.223  -2.735  1.00  0.00    -0.382 OA
ATOM     20  C   UNL     1      -1.986  -1.115  -4.108  1.00  0.00     0.195 C 
ENDBRANCH  18  19
ENDBRANCH   1  18
BRANCH   4  21
ATOM     21  C   UNL     1       3.287  -0.066   0.100  1.00  0.00     0.090 C 
BRANCH  21  22
ATOM     22  C   UNL     1       4.236   1.126   0.284  1.00  0.00     0.062 C 
BRANCH  22  23
ATOM     23  C   UNL     1       5.658   0.709   0.075  1.00  0.00     0.006 A 
ATOM     24  C   UNL     1       6.478   0.117   1.027  1.00  0.00     0.015 A 
ATOM     25  S   UNL     1       6.483   0.764  -1.389  1.00  0.00    -0.149 S 
ATOM     26  C   UNL     1       7.737  -0.236   0.525  1.00  0.00     0.012 A 
ATOM     27  C   UNL     1       7.903   0.061  -0.822  1.00  0.00     0.065 A 
ENDBRANCH  22  23
ENDBRANCH  21  22
ENDBRANCH   4  21
TORSDOF 9
