REMARK SMILES CC(C)c1cccc(C(C)C)c1O
REMARK SMILES IDX 4 1 5 2 6 3 7 4 8 5 12 6 2 7 1 8 3 9 13 10 9 12 10 13 11 14
REMARK H PARENT 13 11
REMARK Flexibility Score: inf
ROOT
ATOM      1  C   UNL     1       1.254  -0.028  -0.140  1.00  0.00    -0.003 A 
ATOM      2  C   UNL     1       1.254  -0.317  -1.516  1.00  0.00     0.008 A 
ATOM      3  C   UNL     1       0.060  -0.515  -2.199  1.00  0.00     0.001 A 
ATOM      4  C   UNL     1      -1.154  -0.461  -1.521  1.00  0.00     0.008 A 
ATOM      5  C   UNL     1      -1.199  -0.220  -0.133  1.00  0.00    -0.003 A 
ATOM      6  C   UNL     1       0.020   0.061   0.548  1.00  0.00     0.122 A 
ENDROOT
BRANCH   1   7
ATOM      7  C   UNL     1       2.575   0.226   0.577  1.00  0.00     0.017 C 
ATOM      8  C   UNL     1       3.506  -0.990   0.480  1.00  0.00     0.012 C 
ATOM      9  C   UNL     1       3.260   1.487   0.037  1.00  0.00     0.012 C 
ENDBRANCH   1   7
BRANCH   6  10
ATOM     10  O   UNL     1       0.035   0.450   1.893  1.00  0.00    -0.507 OA
ATOM     11  H   UNL     1      -0.786   0.709   2.422  1.00  0.00     0.293 HD
ENDBRANCH   6  10
BRANCH   5  12
ATOM     12  C   UNL     1      -2.543  -0.198   0.591  1.00  0.00     0.017 C 
ATOM     13  C   UNL     1      -3.164   1.201   0.514  1.00  0.00     0.012 C 
ATOM     14  C   UNL     1      -3.531  -1.259   0.077  1.00  0.00     0.012 C 
ENDBRANCH   5  12
TORSDOF 3
