REMARK SMILES CC(=O)O[C@]1(C(C)=O)CC[C@H]2[C@@H]3C=C(C)C4=CC(=O)CC[C@]4(C)[C@H]3CC[C@@]21C
REMARK SMILES IDX 11 1 10 2 9 3 5 4 27 5 28 6 26 7 25 8 24 9 12 10 13 11 14 12
REMARK SMILES IDX 15 13 16 14 17 15 18 16 19 17 20 18 21 19 22 20 23 21 4 22
REMARK SMILES IDX 2 23 1 24 3 25 6 26 7 27 8 28
REMARK H PARENT
REMARK Flexibility Score: inf
ROOT
ATOM      1  C   UNL     1      -0.875  -0.452  -0.696  1.00  0.00     0.007 C 
ATOM      2  C   UNL     1      -1.779  -1.231  -1.647  1.00  0.00     0.009 C 
ATOM      3  C   UNL     1      -3.214  -0.811  -1.264  1.00  0.00     0.058 C 
ATOM      4  C   UNL     1      -3.095   0.290  -0.159  1.00  0.00     0.175 C 
ATOM      5  C   UNL     1      -1.646   0.846  -0.390  1.00  0.00     0.018 C 
ATOM      6  C   UNL     1      -1.649   1.850  -1.599  1.00  0.00     0.016 C 
ATOM      7  C   UNL     1      -0.972   1.528   0.831  1.00  0.00     0.012 C 
ATOM      8  C   UNL     1       0.542   1.779   0.593  1.00  0.00     0.006 C 
ATOM      9  C   UNL     1       1.292   0.491   0.145  1.00  0.00     0.007 C 
ATOM     10  C   UNL     1       0.593  -0.189  -1.083  1.00  0.00     0.020 C 
ATOM     11  C   UNL     1       1.317  -1.448  -1.527  1.00  0.00    -0.019 C 
ATOM     12  C   UNL     1       2.619  -1.674  -1.261  1.00  0.00    -0.051 C 
ATOM     13  C   UNL     1       3.289  -2.888  -1.848  1.00  0.00     0.044 C 
ATOM     14  C   UNL     1       3.327  -0.814  -0.271  1.00  0.00    -0.036 C 
ATOM     15  C   UNL     1       4.112  -1.406   0.653  1.00  0.00     0.051 C 
ATOM     16  C   UNL     1       4.446  -0.744   1.921  1.00  0.00     0.156 C 
ATOM     17  O   UNL     1       5.241  -1.294   2.728  1.00  0.00    -0.295 OA
ATOM     18  C   UNL     1       3.761   0.530   2.292  1.00  0.00     0.081 C 
ATOM     19  C   UNL     1       3.593   1.379   1.037  1.00  0.00     0.020 C 
ATOM     20  C   UNL     1       2.834   0.632  -0.111  1.00  0.00    -0.003 C 
ATOM     21  C   UNL     1       3.136   1.413  -1.419  1.00  0.00     0.017 C 
ENDROOT
BRANCH   4  22
ATOM     22  O   UNL     1      -3.245  -0.232   1.182  1.00  0.00    -0.451 OA
BRANCH  22  23
ATOM     23  C   UNL     1      -2.957  -1.503   1.712  1.00  0.00     0.303 C 
ATOM     24  C   UNL     1      -3.007  -1.688   3.190  1.00  0.00     0.139 C 
ATOM     25  O   UNL     1      -2.644  -2.482   0.984  1.00  0.00    -0.253 OA
ENDBRANCH  22  23
ENDBRANCH   4  22
BRANCH   4  26
ATOM     26  C   UNL     1      -4.166   1.378  -0.265  1.00  0.00     0.173 C 
ATOM     27  C   UNL     1      -5.337   1.299  -1.206  1.00  0.00     0.092 C 
ATOM     28  O   UNL     1      -4.089   2.349   0.475  1.00  0.00    -0.295 OA
ENDBRANCH   4  26
TORSDOF 3
