REMARK SMILES CC(=O)N[C@H]1[C@H]([C@H](O)[C@H](O)CO)OC(C(=O)O)=C[C@@H]1N=C(N)N
REMARK SMILES IDX 7 1 6 2 13 3 5 4 14 5 19 6 18 7 4 8 2 9 1 11 3 12 15 13
REMARK SMILES IDX 16 14 17 15 20 17 21 18 22 19 23 20 8 25 9 27 10 28 11 30
REMARK SMILES IDX 12 31
REMARK H PARENT 4 10 17 16 22 21 22 22 23 23 23 24 8 26 10 29 12 32
REMARK Flexibility Score: inf
ROOT
ATOM      1  C   UNL     1       2.468  -0.180   0.461  1.00  0.00     0.188 C 
ENDROOT
BRANCH   1   2
ATOM      2  C   UNL     1       1.060  -0.811   0.647  1.00  0.00     0.229 C 
ATOM      3  O   UNL     1       0.982  -2.011  -0.127  1.00  0.00    -0.478 OA
ATOM      4  C   UNL     1      -0.132   0.114   0.292  1.00  0.00     0.154 C 
ATOM      5  C   UNL     1      -0.229  -2.610  -0.504  1.00  0.00     0.203 C 
ATOM      6  C   UNL     1      -1.448  -0.671   0.466  1.00  0.00     0.162 C 
ATOM      7  C   UNL     1      -1.394  -1.987  -0.272  1.00  0.00     0.056 C 
BRANCH   4   8
ATOM      8  N   UNL     1      -0.153   1.295   1.160  1.00  0.00    -0.347 N 
ATOM      9  C   UNL     1      -0.401   2.620   0.669  1.00  0.00     0.217 C 
ATOM     10  H   UNL     1      -0.090   1.153   2.194  1.00  0.00     0.163 HD
ATOM     11  C   UNL     1      -0.463   3.766   1.625  1.00  0.00     0.114 C 
ATOM     12  O   UNL     1      -0.591   2.824  -0.560  1.00  0.00    -0.275 OA
ENDBRANCH   4   8
BRANCH   5  13
ATOM     13  C   UNL     1      -0.184  -3.914  -1.187  1.00  0.00     0.370 C 
ATOM     14  O   UNL     1       0.928  -4.464  -1.407  1.00  0.00    -0.243 OA
BRANCH  13  15
ATOM     15  O   UNL     1      -1.356  -4.548  -1.592  1.00  0.00    -0.475 OA
ATOM     16  H   UNL     1      -1.327  -5.445  -2.062  1.00  0.00     0.297 HD
ENDBRANCH  13  15
ENDBRANCH   5  13
BRANCH   6  17
ATOM     17  N   UNL     1      -2.560   0.142  -0.035  1.00  0.00    -0.244 NA
ATOM     18  C   UNL     1      -3.828  -0.042   0.199  1.00  0.00     0.186 C 
ATOM     19  N   UNL     1      -4.299  -1.116   1.025  1.00  0.00    -0.370 N 
ATOM     20  N   UNL     1      -4.773   0.858  -0.379  1.00  0.00    -0.370 N 
ATOM     21  H   UNL     1      -5.323  -1.229   1.194  1.00  0.00     0.159 HD
ATOM     22  H   UNL     1      -3.659  -1.807   1.471  1.00  0.00     0.159 HD
ATOM     23  H   UNL     1      -5.796   0.737  -0.207  1.00  0.00     0.159 HD
ATOM     24  H   UNL     1      -4.453   1.650  -0.980  1.00  0.00     0.159 HD
ENDBRANCH   6  17
ENDBRANCH   1   2
BRANCH   1  25
ATOM     25  O   UNL     1       2.748   0.717   1.510  1.00  0.00    -0.386 OA
ATOM     26  H   UNL     1       2.365   1.601   1.278  1.00  0.00     0.211 HD
ENDBRANCH   1  25
BRANCH   1  27
ATOM     27  C   UNL     1       2.708   0.467  -0.937  1.00  0.00     0.172 C 
BRANCH  27  28
ATOM     28  O   UNL     1       2.377  -0.426  -1.972  1.00  0.00    -0.388 OA
ATOM     29  H   UNL     1       2.973  -1.216  -1.888  1.00  0.00     0.211 HD
ENDBRANCH  27  28
BRANCH  27  30
ATOM     30  C   UNL     1       4.161   0.943  -1.094  1.00  0.00     0.190 C 
BRANCH  30  31
ATOM     31  O   UNL     1       4.333   1.525  -2.356  1.00  0.00    -0.394 OA
ATOM     32  H   UNL     1       5.284   1.805  -2.403  1.00  0.00     0.210 HD
ENDBRANCH  30  31
ENDBRANCH  27  30
ENDBRANCH   1  27
TORSDOF 10
