REMARK SMILES NCCC(O)(P(=O)(O)O)P(=O)(O)O
REMARK SMILES IDX 3 1 2 2 1 3 4 6 5 7 6 9 7 10 8 11 9 13 10 15 11 16 12 17
REMARK SMILES IDX 13 19
REMARK H PARENT 1 4 1 5 5 8 8 12 9 14 12 18 13 20
REMARK Flexibility Score: inf
ROOT
ATOM      1  C   UNL     1       0.803   0.520  -0.275  1.00  0.00     0.077 C 
ENDROOT
BRANCH   1   2
ATOM      2  C   UNL     1       2.014  -0.422  -0.181  1.00  0.00     0.082 C 
BRANCH   2   3
ATOM      3  N   UNL     1       3.178   0.196  -0.809  1.00  0.00    -0.330 NA
ATOM      4  H   UNL     1       3.950  -0.510  -0.813  1.00  0.00     0.118 HD
ATOM      5  H   UNL     1       3.500   0.983  -0.200  1.00  0.00     0.118 HD
ENDBRANCH   2   3
ENDBRANCH   1   2
BRANCH   1   6
ATOM      6  C   UNL     1      -0.431   0.050   0.532  1.00  0.00     0.268 C 
BRANCH   6   7
ATOM      7  O   UNL     1      -0.060  -0.128   1.876  1.00  0.00    -0.367 OA
ATOM      8  H   UNL     1      -0.861  -0.441   2.372  1.00  0.00     0.213 HD
ENDBRANCH   6   7
BRANCH   6   9
ATOM      9  P   UNL     1      -1.110  -1.520  -0.148  1.00  0.00     0.369 P 
ATOM     10  O   UNL     1      -2.465  -1.804   0.461  1.00  0.00    -0.256 OA
BRANCH   9  11
ATOM     11  O   UNL     1      -0.075  -2.812   0.208  1.00  0.00    -0.322 OA
ATOM     12  H   UNL     1      -0.044  -2.849   1.198  1.00  0.00     0.221 HD
ENDBRANCH   9  11
BRANCH   9  13
ATOM     13  O   UNL     1      -1.275  -1.386  -1.827  1.00  0.00    -0.322 OA
ATOM     14  H   UNL     1      -1.558  -2.286  -2.126  1.00  0.00     0.221 HD
ENDBRANCH   9  13
ENDBRANCH   6   9
BRANCH   6  15
ATOM     15  P   UNL     1      -1.719   1.355   0.432  1.00  0.00     0.369 P 
ATOM     16  O   UNL     1      -2.914   0.967   1.273  1.00  0.00    -0.256 OA
BRANCH  15  17
ATOM     17  O   UNL     1      -1.089   2.814   1.015  1.00  0.00    -0.322 OA
ATOM     18  H   UNL     1      -1.804   3.481   0.855  1.00  0.00     0.221 HD
ENDBRANCH  15  17
BRANCH  15  19
ATOM     19  O   UNL     1      -2.216   1.557  -1.174  1.00  0.00    -0.322 OA
ATOM     20  H   UNL     1      -1.503   2.100  -1.595  1.00  0.00     0.221 HD
ENDBRANCH  15  19
ENDBRANCH   6  15
ENDBRANCH   1   6
TORSDOF 10
