REMARK SMILES CC(=O)Nc1ccc(O)cc1
REMARK SMILES IDX 5 1 6 2 7 3 8 4 10 5 11 6 4 7 1 8 2 9 3 10 9 12
REMARK H PARENT 4 11 9 13
REMARK Flexibility Score: inf
ROOT
ATOM      1  C   UNL     1      -0.104  -0.223   0.245  1.00  0.00     0.041 A 
ATOM      2  C   UNL     1      -0.516   0.260  -1.010  1.00  0.00     0.030 A 
ATOM      3  C   UNL     1      -1.874   0.455  -1.281  1.00  0.00     0.048 A 
ATOM      4  C   UNL     1      -2.836   0.156  -0.308  1.00  0.00     0.115 A 
ATOM      5  C   UNL     1      -2.434  -0.344   0.934  1.00  0.00     0.048 A 
ATOM      6  C   UNL     1      -1.076  -0.541   1.207  1.00  0.00     0.030 A 
ENDROOT
BRANCH   1   7
ATOM      7  N   UNL     1       1.283  -0.456   0.543  1.00  0.00    -0.326 N 
ATOM      8  C   UNL     1       3.775  -0.099   0.240  1.00  0.00     0.114 C 
ATOM      9  C   UNL     1       2.363   0.342   0.033  1.00  0.00     0.221 C 
ATOM     10  O   UNL     1       2.137   1.455  -0.514  1.00  0.00    -0.275 OA
ATOM     11  H   UNL     1       1.518  -1.201   1.238  1.00  0.00     0.169 HD
ENDBRANCH   1   7
BRANCH   4  12
ATOM     12  O   UNL     1      -4.192   0.348  -0.566  1.00  0.00    -0.508 OA
ATOM     13  H   UNL     1      -4.515   0.707  -1.457  1.00  0.00     0.293 HD
ENDBRANCH   4  12
TORSDOF 2
