REMARK SMILES Nc1nc(N)c2nc(-c3ccccc3)c(N)nc2n1
REMARK SMILES IDX 2 1 3 2 4 3 6 4 7 5 8 6 15 7 17 8 18 9 19 10 1 11 5 14 16 17
REMARK SMILES IDX 9 20 10 21 14 22 11 23 13 24 12 25
REMARK H PARENT 1 12 1 13 5 15 5 16 16 18 16 19
REMARK Flexibility Score: inf
ROOT
ATOM      1  C   UNL     1       4.322  -0.007  -0.435  1.00  0.00     0.224 A 
ATOM      2  N   UNL     1       3.773  -1.113  -1.007  1.00  0.00    -0.194 NA
ATOM      3  C   UNL     1       2.432  -1.339  -0.974  1.00  0.00     0.157 A 
ATOM      4  C   UNL     1       1.599  -0.409  -0.337  1.00  0.00     0.151 A 
ATOM      5  N   UNL     1       0.251  -0.571  -0.277  1.00  0.00    -0.237 NA
ATOM      6  C   UNL     1      -0.551   0.341   0.339  1.00  0.00     0.113 A 
ATOM      7  C   UNL     1       0.044   1.471   0.952  1.00  0.00     0.152 A 
ATOM      8  N   UNL     1       1.394   1.629   0.879  1.00  0.00    -0.207 NA
ATOM      9  C   UNL     1       2.182   0.724   0.246  1.00  0.00     0.187 A 
ATOM     10  N   UNL     1       3.526   0.903   0.188  1.00  0.00    -0.191 NA
ENDROOT
BRANCH   1  11
ATOM     11  N   UNL     1       5.732   0.198  -0.488  1.00  0.00    -0.368 N 
ATOM     12  H   UNL     1       6.349  -0.497  -0.964  1.00  0.00     0.159 HD
ATOM     13  H   UNL     1       6.160   1.044  -0.051  1.00  0.00     0.159 HD
ENDBRANCH   1  11
BRANCH   3  14
ATOM     14  N   UNL     1       1.900  -2.515  -1.589  1.00  0.00    -0.382 N 
ATOM     15  H   UNL     1       0.877  -2.721  -1.581  1.00  0.00     0.158 HD
ATOM     16  H   UNL     1       2.540  -3.194  -2.059  1.00  0.00     0.158 HD
ENDBRANCH   3  14
BRANCH   7  17
ATOM     17  N   UNL     1      -0.722   2.421   1.700  1.00  0.00    -0.382 N 
ATOM     18  H   UNL     1      -0.256   3.271   2.089  1.00  0.00     0.158 HD
ATOM     19  H   UNL     1      -1.719   2.252   1.957  1.00  0.00     0.158 HD
ENDBRANCH   7  17
BRANCH   6  20
ATOM     20  C   UNL     1      -2.011   0.115   0.320  1.00  0.00     0.004 A 
ATOM     21  C   UNL     1      -2.889   1.109  -0.147  1.00  0.00     0.010 A 
ATOM     22  C   UNL     1      -2.529  -1.134   0.700  1.00  0.00     0.010 A 
ATOM     23  C   UNL     1      -4.266   0.868  -0.195  1.00  0.00     0.001 A 
ATOM     24  C   UNL     1      -3.907  -1.371   0.651  1.00  0.00     0.001 A 
ATOM     25  C   UNL     1      -4.774  -0.370   0.207  1.00  0.00     0.000 A 
ENDBRANCH   6  20
TORSDOF 4
