REMARK SMILES CN1CCC(CN2c3ccccc3Sc3ccccc32)C1
REMARK SMILES IDX 6 1 5 2 1 3 2 4 3 5 21 6 4 7 7 8 8 9 20 10 9 11 13 12 15 13
REMARK SMILES IDX 19 14 10 15 12 16 14 17 16 18 18 19 11 20 17 21
REMARK H PARENT
REMARK Flexibility Score: inf
ROOT
ATOM      1  C   UNL     1      -0.414  -0.196   1.182  1.00  0.00     0.127 C 
ENDROOT
BRANCH   1   2
ATOM      2  C   UNL     1      -1.437  -0.767   0.180  1.00  0.00     0.024 C 
ATOM      3  C   UNL     1      -5.102  -0.581   0.172  1.00  0.00     0.105 C 
ATOM      4  N   UNL     1      -3.762  -0.964  -0.294  1.00  0.00    -0.306 NA
ATOM      5  C   UNL     1      -3.222  -0.008  -1.274  1.00  0.00     0.084 C 
ATOM      6  C   UNL     1      -2.798  -1.012   0.808  1.00  0.00     0.089 C 
ATOM      7  C   UNL     1      -1.735   0.177  -0.978  1.00  0.00     0.022 C 
ENDBRANCH   1   2
BRANCH   1   8
ATOM      8  N   UNL     1       0.875   0.075   0.524  1.00  0.00    -0.339 N 
ATOM      9  C   UNL     1       1.599  -0.958  -0.180  1.00  0.00     0.055 A 
ATOM     10  C   UNL     1       1.477   1.386   0.577  1.00  0.00     0.055 A 
ATOM     11  C   UNL     1       1.716  -2.256   0.348  1.00  0.00     0.027 A 
ATOM     12  C   UNL     1       2.316  -0.623  -1.344  1.00  0.00     0.036 A 
ATOM     13  C   UNL     1       2.183   1.864  -0.543  1.00  0.00     0.036 A 
ATOM     14  C   UNL     1       1.514   2.120   1.776  1.00  0.00     0.027 A 
ATOM     15  C   UNL     1       2.546  -3.195  -0.273  1.00  0.00     0.002 A 
ATOM     16  C   UNL     1       3.164  -1.558  -1.947  1.00  0.00     0.017 A 
ATOM     17  S   UNL     1       2.059   0.985  -2.103  1.00  0.00    -0.086 SA
ATOM     18  C   UNL     1       2.929   3.044  -0.458  1.00  0.00     0.017 A 
ATOM     19  C   UNL     1       2.241   3.312   1.849  1.00  0.00     0.002 A 
ATOM     20  C   UNL     1       3.276  -2.844  -1.412  1.00  0.00     0.001 A 
ATOM     21  C   UNL     1       2.953   3.770   0.737  1.00  0.00     0.001 A 
ENDBRANCH   1   8
TORSDOF 2
