REMARK SMILES Clc1ccccc1C(c1ccccc1)(c1ccccc1)n1ccnc1
REMARK SMILES IDX 8 1 7 2 1 3 2 4 3 5 4 6 6 7 5 8 21 9 22 10 25 11 23 12 24 13
REMARK SMILES IDX 9 14 10 15 14 16 11 17 13 18 12 19 15 20 16 21 20 22 17 23
REMARK SMILES IDX 19 24 18 25
REMARK H PARENT
REMARK Flexibility Score: inf
ROOT
ATOM      1  C   UNL     1       0.100   0.002   0.316  1.00  0.00     0.123 C 
ENDROOT
BRANCH   1   2
ATOM      2  C   UNL     1       1.327  -0.743  -0.281  1.00  0.00     0.006 A 
ATOM      3  Cl  UNL     1       3.025   1.446   0.259  1.00  0.00    -0.084 Cl
ATOM      4  C   UNL     1       2.632  -0.164  -0.343  1.00  0.00     0.047 A 
ATOM      5  C   UNL     1       3.710  -0.902  -0.851  1.00  0.00     0.021 A 
ATOM      6  C   UNL     1       3.544  -2.228  -1.238  1.00  0.00     0.002 A 
ATOM      7  C   UNL     1       1.222  -2.124  -0.589  1.00  0.00     0.008 A 
ATOM      8  C   UNL     1       2.308  -2.844  -1.087  1.00  0.00     0.001 A 
ENDBRANCH   1   2
BRANCH   1   9
ATOM      9  N   UNL     1       0.253  -0.115   1.791  1.00  0.00    -0.319 N 
ATOM     10  C   UNL     1       0.094  -1.245   2.512  1.00  0.00     0.109 A 
ATOM     11  C   UNL     1       0.847   0.749   2.650  1.00  0.00     0.200 A 
ATOM     12  C   UNL     1       0.535  -1.019   3.792  1.00  0.00     0.131 A 
ATOM     13  N   UNL     1       1.016   0.234   3.885  1.00  0.00    -0.245 NA
ENDBRANCH   1   9
BRANCH   1  14
ATOM     14  C   UNL     1      -1.248  -0.602  -0.143  1.00  0.00    -0.013 A 
ATOM     15  C   UNL     1      -1.453  -0.945  -1.500  1.00  0.00     0.007 A 
ATOM     16  C   UNL     1      -2.368  -0.634   0.720  1.00  0.00     0.007 A 
ATOM     17  C   UNL     1      -2.695  -1.406  -1.945  1.00  0.00     0.000 A 
ATOM     18  C   UNL     1      -3.608  -1.096   0.268  1.00  0.00     0.000 A 
ATOM     19  C   UNL     1      -3.768  -1.492  -1.059  1.00  0.00     0.000 A 
ENDBRANCH   1  14
BRANCH   1  20
ATOM     20  C   UNL     1      -0.015   1.468  -0.149  1.00  0.00    -0.013 A 
ATOM     21  C   UNL     1      -0.756   2.404   0.607  1.00  0.00     0.007 A 
ATOM     22  C   UNL     1       0.400   1.853  -1.446  1.00  0.00     0.007 A 
ATOM     23  C   UNL     1      -0.957   3.706   0.141  1.00  0.00     0.000 A 
ATOM     24  C   UNL     1       0.196   3.156  -1.907  1.00  0.00     0.000 A 
ATOM     25  C   UNL     1      -0.470   4.086  -1.109  1.00  0.00     0.000 A 
ENDBRANCH   1  20
TORSDOF 4
