REMARK SMILES Cc1ccccc1N1CCN(CCc2nnc3n2CCCC3)CC1
REMARK SMILES IDX 12 1 11 2 8 3 9 4 24 5 10 6 23 7 7 8 1 9 2 10 3 11 4 12 6 13
REMARK SMILES IDX 5 14 13 15 14 16 15 17 18 18 16 19 17 20 19 21 22 22 20 23
REMARK SMILES IDX 21 24
REMARK H PARENT
REMARK Flexibility Score: inf
ROOT
ATOM      1  C   UNL     1      -1.104   0.357   0.963  1.00  0.00     0.092 C 
ENDROOT
BRANCH   1   2
ATOM      2  N   UNL     1       0.327   0.226   0.617  1.00  0.00    -0.299 NA
ATOM      3  N   UNL     1       2.919  -0.356   0.125  1.00  0.00    -0.369 N 
ATOM      4  C   UNL     1       2.573  -0.475   1.547  1.00  0.00     0.132 C 
ATOM      5  C   UNL     1       1.958  -0.742  -0.912  1.00  0.00     0.132 C 
ATOM      6  C   UNL     1       1.152   0.062   1.837  1.00  0.00     0.106 C 
ATOM      7  C   UNL     1       0.556  -0.887  -0.322  1.00  0.00     0.106 C 
BRANCH   3   8
ATOM      8  C   UNL     1       4.244   0.037  -0.263  1.00  0.00     0.040 A 
ATOM      9  C   UNL     1       5.190  -2.181   0.549  1.00  0.00     0.046 C 
ATOM     10  C   UNL     1       5.353  -0.820  -0.068  1.00  0.00    -0.028 A 
ATOM     11  C   UNL     1       6.636  -0.376  -0.430  1.00  0.00     0.005 A 
ATOM     12  C   UNL     1       6.814   0.885  -1.005  1.00  0.00     0.000 A 
ATOM     13  C   UNL     1       4.436   1.297  -0.848  1.00  0.00     0.026 A 
ATOM     14  C   UNL     1       5.715   1.718  -1.219  1.00  0.00     0.002 A 
ENDBRANCH   3   8
ENDBRANCH   1   2
BRANCH   1  15
ATOM     15  C   UNL     1      -1.820   1.241  -0.063  1.00  0.00     0.093 C 
BRANCH  15  16
ATOM     16  C   UNL     1      -3.275   1.365   0.275  1.00  0.00     0.134 A 
ATOM     17  N   UNL     1      -3.784   2.339   1.057  1.00  0.00    -0.135 NA
ATOM     18  N   UNL     1      -4.231   0.494  -0.098  1.00  0.00    -0.315 N 
ATOM     19  N   UNL     1      -5.087   2.112   1.166  1.00  0.00    -0.135 NA
ATOM     20  C   UNL     1      -5.347   1.005   0.444  1.00  0.00     0.132 A 
ATOM     21  C   UNL     1      -4.158  -0.657  -0.999  1.00  0.00     0.125 C 
ATOM     22  C   UNL     1      -6.683   0.341   0.333  1.00  0.00     0.077 C 
ATOM     23  C   UNL     1      -5.425  -1.519  -0.866  1.00  0.00     0.022 C 
ATOM     24  C   UNL     1      -6.692  -0.643  -0.850  1.00  0.00     0.010 C 
ENDBRANCH  15  16
ENDBRANCH   1  15
TORSDOF 4
