REMARK SMILES CN(C)CCN(Cc1ccccc1)c1ccccn1
REMARK SMILES IDX 5 1 4 2 2 3 1 4 3 5 6 6 7 7 8 8 9 9 13 10 10 11 12 12 11 13
REMARK SMILES IDX 14 14 15 15 19 16 16 17 18 18 17 19
REMARK H PARENT
REMARK Flexibility Score: inf
ROOT
ATOM      1  C   UNL     1      -0.913  -0.601   0.673  1.00  0.00     0.134 C 
ENDROOT
BRANCH   1   2
ATOM      2  C   UNL     1      -2.312  -0.692   0.048  1.00  0.00     0.105 C 
BRANCH   2   3
ATOM      3  N   UNL     1      -3.335  -0.919   1.093  1.00  0.00    -0.308 NA
ATOM      4  C   UNL     1      -4.645  -0.425   0.641  1.00  0.00     0.105 C 
ATOM      5  C   UNL     1      -3.442  -2.350   1.428  1.00  0.00     0.105 C 
ENDBRANCH   2   3
ENDBRANCH   1   2
BRANCH   1   6
ATOM      6  N   UNL     1       0.081  -0.182  -0.333  1.00  0.00    -0.351 N 
BRANCH   6   7
ATOM      7  C   UNL     1       1.048  -1.178  -0.824  1.00  0.00     0.153 C 
BRANCH   7   8
ATOM      8  C   UNL     1       2.395  -0.951  -0.191  1.00  0.00    -0.029 A 
ATOM      9  C   UNL     1       2.607  -1.291   1.155  1.00  0.00     0.005 A 
ATOM     10  C   UNL     1       3.442  -0.367  -0.926  1.00  0.00     0.005 A 
ATOM     11  C   UNL     1       3.848  -1.058   1.755  1.00  0.00     0.000 A 
ATOM     12  C   UNL     1       4.681  -0.134  -0.322  1.00  0.00     0.000 A 
ATOM     13  C   UNL     1       4.885  -0.480   1.017  1.00  0.00     0.000 A 
ENDBRANCH   7   8
ENDBRANCH   6   7
BRANCH   6  14
ATOM     14  C   UNL     1       0.141   1.177  -0.841  1.00  0.00     0.128 A 
ATOM     15  C   UNL     1      -0.563   2.237  -0.233  1.00  0.00     0.047 A 
ATOM     16  N   UNL     1       0.905   1.447  -1.940  1.00  0.00    -0.239 NA
ATOM     17  C   UNL     1      -0.470   3.524  -0.767  1.00  0.00     0.005 A 
ATOM     18  C   UNL     1       1.009   2.694  -2.470  1.00  0.00     0.113 A 
ATOM     19  C   UNL     1       0.319   3.758  -1.892  1.00  0.00     0.020 A 
ENDBRANCH   6  14
ENDBRANCH   1   6
TORSDOF 6
