REMARK SMILES NC(=O)NCCC[C@H](N)C(=O)O
REMARK SMILES IDX 7 1 8 2 9 3 10 6 11 7 12 8 6 10 5 11 4 12 2 13 1 15 3 16
REMARK H PARENT 9 4 9 5 12 9 4 14 1 17 1 18
REMARK Flexibility Score: inf
ROOT
ATOM      1  C   UNL     1      -0.770  -0.340   0.547  1.00  0.00     0.032 C 
ENDROOT
BRANCH   1   2
ATOM      2  C   UNL     1      -2.161  -0.143  -0.081  1.00  0.00     0.162 C 
BRANCH   2   3
ATOM      3  N   UNL     1      -2.043   0.428  -1.425  1.00  0.00    -0.318 NA
ATOM      4  H   UNL     1      -1.647   1.394  -1.362  1.00  0.00     0.119 HD
ATOM      5  H   UNL     1      -3.001   0.508  -1.840  1.00  0.00     0.119 HD
ENDBRANCH   2   3
BRANCH   2   6
ATOM      6  C   UNL     1      -3.009   0.740   0.795  1.00  0.00     0.320 C 
ATOM      7  O   UNL     1      -4.091   0.303   1.272  1.00  0.00    -0.251 OA
BRANCH   6   8
ATOM      8  O   UNL     1      -2.603   2.041   1.079  1.00  0.00    -0.480 OA
ATOM      9  H   UNL     1      -3.166   2.644   1.667  1.00  0.00     0.296 HD
ENDBRANCH   6   8
ENDBRANCH   2   6
ENDBRANCH   1   2
BRANCH   1  10
ATOM     10  C   UNL     1       0.073  -1.358  -0.238  1.00  0.00     0.023 C 
BRANCH  10  11
ATOM     11  C   UNL     1       1.433  -1.608   0.426  1.00  0.00     0.118 C 
BRANCH  11  12
ATOM     12  N   UNL     1       2.245  -0.391   0.446  1.00  0.00    -0.338 N 
ATOM     13  C   UNL     1       2.879   0.137  -0.727  1.00  0.00     0.312 C 
ATOM     14  H   UNL     1       2.407   0.084   1.363  1.00  0.00     0.165 HD
ATOM     15  N   UNL     1       3.632   1.346  -0.647  1.00  0.00    -0.352 N 
ATOM     16  O   UNL     1       2.782  -0.463  -1.831  1.00  0.00    -0.249 OA
ATOM     17  H   UNL     1       3.722   1.857   0.259  1.00  0.00     0.161 HD
ATOM     18  H   UNL     1       4.098   1.734  -1.497  1.00  0.00     0.161 HD
ENDBRANCH  11  12
ENDBRANCH  10  11
ENDBRANCH   1  10
TORSDOF 7
