REMARK SMILES O=C(O[C@H]1C[C@H]2CC[C@@H](C1)[N+]21CCCC1)C(O)(c1ccccc1)c1ccccc1
REMARK SMILES IDX 2 1 1 2 3 3 4 4 9 5 8 6 10 7 11 8 7 9 6 10 12 11 15 12 5 13
REMARK SMILES IDX 13 14 14 15 16 16 17 17 18 19 19 20 23 21 20 22 22 23 21 24
REMARK SMILES IDX 24 25 25 26 29 27 26 28 28 29 27 30
REMARK H PARENT 17 18
REMARK Flexibility Score: inf
ROOT
ATOM      1  C   UNL     1       1.445   0.058  -0.494  1.00  0.00     0.347 C 
ATOM      2  O   UNL     1       1.630   0.739  -1.541  1.00  0.00    -0.248 OA
ENDROOT
BRANCH   1   3
ATOM      3  O   UNL     1       0.247  -0.644  -0.313  1.00  0.00    -0.459 OA
BRANCH   3   4
ATOM      4  C   UNL     1      -0.878  -0.525  -1.188  1.00  0.00     0.188 C 
ATOM      5  C   UNL     1      -2.748   0.784   0.056  1.00  0.00     0.189 C 
ATOM      6  C   UNL     1      -2.157   0.368   1.425  1.00  0.00     0.071 C 
ATOM      7  C   UNL     1      -1.580   0.853  -0.970  1.00  0.00     0.110 C 
ATOM      8  N   UNL     1      -3.718  -0.293  -0.285  1.00  0.00    -0.319 N 
ATOM      9  C   UNL     1      -2.304  -1.160   1.446  1.00  0.00     0.071 C 
ATOM     10  C   UNL     1      -2.935  -1.495   0.079  1.00  0.00     0.189 C 
ATOM     11  C   UNL     1      -4.963  -0.167   0.522  1.00  0.00     0.264 C 
ATOM     12  C   UNL     1      -4.245  -0.299  -1.673  1.00  0.00     0.264 C 
ATOM     13  C   UNL     1      -1.810  -1.749  -0.970  1.00  0.00     0.110 C 
ATOM     14  C   UNL     1      -5.933   0.700  -0.273  1.00  0.00     0.067 C 
ATOM     15  C   UNL     1      -5.439   0.641  -1.706  1.00  0.00     0.067 C 
ENDBRANCH   3   4
ENDBRANCH   1   3
BRANCH   1  16
ATOM     16  C   UNL     1       2.544  -0.058   0.546  1.00  0.00     0.213 C 
BRANCH  16  17
ATOM     17  O   UNL     1       1.979  -0.504   1.759  1.00  0.00    -0.370 OA
ATOM     18  H   UNL     1       1.355   0.195   2.087  1.00  0.00     0.213 HD
ENDBRANCH  16  17
BRANCH  16  19
ATOM     19  C   UNL     1       3.239   1.289   0.817  1.00  0.00    -0.001 A 
ATOM     20  C   UNL     1       4.565   1.330   1.303  1.00  0.00     0.008 A 
ATOM     21  C   UNL     1       2.520   2.504   0.748  1.00  0.00     0.008 A 
ATOM     22  C   UNL     1       5.177   2.549   1.609  1.00  0.00     0.000 A 
ATOM     23  C   UNL     1       3.137   3.719   1.058  1.00  0.00     0.000 A 
ATOM     24  C   UNL     1       4.468   3.743   1.476  1.00  0.00     0.000 A 
ENDBRANCH  16  19
BRANCH  16  25
ATOM     25  C   UNL     1       3.531  -1.104   0.020  1.00  0.00    -0.001 A 
ATOM     26  C   UNL     1       3.638  -2.383   0.610  1.00  0.00     0.008 A 
ATOM     27  C   UNL     1       4.334  -0.817  -1.106  1.00  0.00     0.008 A 
ATOM     28  C   UNL     1       4.538  -3.327   0.106  1.00  0.00     0.000 A 
ATOM     29  C   UNL     1       5.228  -1.768  -1.607  1.00  0.00     0.000 A 
ATOM     30  C   UNL     1       5.331  -3.021  -1.001  1.00  0.00     0.000 A 
ENDBRANCH  16  25
ENDBRANCH   1  16
TORSDOF 6
