REMARK SMILES C#C[C@]1(O)CC[C@H]2[C@@H]3CCC4=CC(=O)CC[C@@H]4[C@H]3C(=C)C[C@@]21CC
REMARK SMILES IDX 7 1 6 2 5 3 3 4 22 5 21 6 19 7 20 8 18 9 17 10 16 11 15 12
REMARK SMILES IDX 13 13 14 14 12 15 11 16 10 17 9 18 8 19 23 20 24 21 4 22
REMARK SMILES IDX 2 24 1 25
REMARK H PARENT 4 23
REMARK Flexibility Score: inf
ROOT
ATOM      1  C   UNL     1      -1.165   0.528  -1.140  1.00  0.00     0.003 C 
ATOM      2  C   UNL     1      -1.952   1.624  -1.854  1.00  0.00     0.008 C 
ATOM      3  C   UNL     1      -3.430   1.295  -1.560  1.00  0.00     0.050 C 
ATOM      4  C   UNL     1      -3.443   0.083  -0.592  1.00  0.00     0.131 C 
ATOM      5  C   UNL     1      -2.035   0.155   0.092  1.00  0.00     0.017 C 
ATOM      6  C   UNL     1      -1.463  -1.179   0.658  1.00  0.00     0.042 C 
ATOM      7  C   UNL     1      -0.001  -0.956   1.009  1.00  0.00    -0.073 C 
ATOM      8  C   UNL     1       0.350  -0.863   2.306  1.00  0.00     0.008 C 
ATOM      9  C   UNL     1       0.909  -0.540  -0.160  1.00  0.00     0.025 C 
ATOM     10  C   UNL     1       2.418  -0.368   0.167  1.00  0.00     0.023 C 
ATOM     11  C   UNL     1       3.083  -1.677   0.654  1.00  0.00     0.017 C 
ATOM     12  C   UNL     1       4.532  -1.392   1.081  1.00  0.00     0.081 C 
ATOM     13  C   UNL     1       5.265  -0.604   0.028  1.00  0.00     0.155 C 
ATOM     14  O   UNL     1       6.521  -0.525   0.070  1.00  0.00    -0.295 OA
ATOM     15  C   UNL     1       4.528   0.067  -1.060  1.00  0.00     0.046 C 
ATOM     16  C   UNL     1       3.185   0.126  -1.050  1.00  0.00    -0.063 C 
ATOM     17  C   UNL     1       2.451   0.458  -2.323  1.00  0.00     0.032 C 
ATOM     18  C   UNL     1       1.136   1.209  -2.078  1.00  0.00     0.009 C 
ATOM     19  C   UNL     1       0.339   0.763  -0.816  1.00  0.00     0.001 C 
ENDROOT
BRANCH   5  20
ATOM     20  C   UNL     1      -1.987   1.300   1.195  1.00  0.00     0.008 C 
ATOM     21  C   UNL     1      -2.803   1.075   2.478  1.00  0.00     0.004 C 
ENDBRANCH   5  20
BRANCH   4  22
ATOM     22  O   UNL     1      -4.509   0.207   0.314  1.00  0.00    -0.377 OA
ATOM     23  H   UNL     1      -4.481  -0.584   0.915  1.00  0.00     0.212 HD
ENDBRANCH   4  22
BRANCH   4  24
ATOM     24  C   UNL     1      -3.639  -1.160  -1.382  1.00  0.00    -0.071 C 
ATOM     25  C   UNL     1      -3.800  -2.168  -2.024  1.00  0.00     0.007 C 
ENDBRANCH   4  24
TORSDOF 3
