REMARK SMILES CC(C)c1nc(CN(C)C(=O)N[C@H](C(=O)N[C@@H](Cc2ccccc2)C[C@H](O)[C@H](Cc2ccccc2)NC(=O)OCc2cncs2)C(C)C)cs1
REMARK SMILES IDX 17 1 16 2 14 3 15 4 13 6 46 7 47 8 48 9 12 10 10 11 11 13
REMARK SMILES IDX 8 14 9 15 7 16 6 17 49 18 5 19 50 20 4 21 2 22 1 23 3 24
REMARK SMILES IDX 25 25 26 26 27 27 28 29 29 30 30 31 31 32 35 33 32 34 34 35
REMARK SMILES IDX 33 36 36 37 37 38 38 40 39 41 40 42 41 43 42 44 45 45 43 46
REMARK SMILES IDX 44 47 18 48 19 49 20 50 24 51 21 52 23 53 22 54
REMARK H PARENT 16 5 12 12 27 28 36 39
REMARK Flexibility Score: inf
ROOT
ATOM      1  C   UNL     1      -1.695  -0.590  -1.460  1.00  0.00     0.089 C 
ENDROOT
BRANCH   1   2
ATOM      2  N   UNL     1      -0.624  -0.594  -2.465  1.00  0.00    -0.351 N 
ATOM      3  C   UNL     1       0.765  -0.655  -2.104  1.00  0.00     0.243 C 
ATOM      4  O   UNL     1       1.101  -0.654  -0.888  1.00  0.00    -0.273 OA
ATOM      5  H   UNL     1      -0.862  -0.752  -3.468  1.00  0.00     0.163 HD
BRANCH   3   6
ATOM      6  C   UNL     1       1.817  -0.773  -3.183  1.00  0.00     0.175 C 
BRANCH   6   7
ATOM      7  C   UNL     1       2.177  -2.254  -3.503  1.00  0.00     0.015 C 
ATOM      8  C   UNL     1       3.308  -2.340  -4.540  1.00  0.00     0.010 C 
ATOM      9  C   UNL     1       0.953  -3.031  -4.022  1.00  0.00     0.010 C 
ENDBRANCH   6   7
BRANCH   6  10
ATOM     10  N   UNL     1       3.000   0.040  -2.847  1.00  0.00    -0.326 N 
ATOM     11  C   UNL     1       3.944  -0.261  -1.800  1.00  0.00     0.318 C 
ATOM     12  H   UNL     1       3.183   0.866  -3.456  1.00  0.00     0.166 HD
ATOM     13  O   UNL     1       3.817  -1.315  -1.122  1.00  0.00    -0.249 OA
BRANCH  11  14
ATOM     14  N   UNL     1       5.051   0.623  -1.530  1.00  0.00    -0.322 N 
ATOM     15  C   UNL     1       4.958   2.050  -1.852  1.00  0.00     0.149 C 
BRANCH  14  16
ATOM     16  C   UNL     1       6.256   0.108  -0.866  1.00  0.00     0.178 C 
BRANCH  16  17
ATOM     17  C   UNL     1       6.125   0.214   0.624  1.00  0.00     0.071 A 
ATOM     18  C   UNL     1       5.701  -0.840   1.432  1.00  0.00     0.092 A 
ATOM     19  N   UNL     1       6.422   1.366   1.285  1.00  0.00    -0.244 NA
ATOM     20  S   UNL     1       5.718  -0.305   3.027  1.00  0.00    -0.127 S 
ATOM     21  C   UNL     1       6.239   1.246   2.621  1.00  0.00     0.095 A 
BRANCH  21  22
ATOM     22  C   UNL     1       6.574   2.341   3.597  1.00  0.00     0.042 C 
ATOM     23  C   UNL     1       5.433   2.558   4.595  1.00  0.00     0.015 C 
ATOM     24  C   UNL     1       7.885   2.023   4.322  1.00  0.00     0.015 C 
ENDBRANCH  21  22
ENDBRANCH  16  17
ENDBRANCH  14  16
ENDBRANCH  11  14
ENDBRANCH   6  10
ENDBRANCH   3   6
ENDBRANCH   1   2
BRANCH   1  25
ATOM     25  C   UNL     1      -1.954  -2.041  -0.984  1.00  0.00     0.059 C 
BRANCH  25  26
ATOM     26  C   UNL     1      -2.830  -2.231   0.284  1.00  0.00     0.139 C 
BRANCH  26  27
ATOM     27  O   UNL     1      -4.185  -2.014  -0.007  1.00  0.00    -0.391 OA
ATOM     28  H   UNL     1      -4.537  -2.852  -0.405  1.00  0.00     0.211 HD
ENDBRANCH  26  27
BRANCH  26  29
ATOM     29  C   UNL     1      -2.375  -1.397   1.518  1.00  0.00     0.118 C 
BRANCH  29  30
ATOM     30  C   UNL     1      -2.777  -2.079   2.847  1.00  0.00     0.063 C 
BRANCH  30  31
ATOM     31  C   UNL     1      -2.389  -1.251   4.047  1.00  0.00    -0.046 A 
ATOM     32  C   UNL     1      -3.373  -0.611   4.820  1.00  0.00     0.004 A 
ATOM     33  C   UNL     1      -1.036  -1.090   4.389  1.00  0.00     0.004 A 
ATOM     34  C   UNL     1      -3.007   0.179   5.914  1.00  0.00     0.000 A 
ATOM     35  C   UNL     1      -0.675  -0.292   5.480  1.00  0.00     0.000 A 
ATOM     36  C   UNL     1      -1.659   0.342   6.241  1.00  0.00     0.000 A 
ENDBRANCH  30  31
ENDBRANCH  29  30
BRANCH  29  37
ATOM     37  N   UNL     1      -2.838   0.002   1.465  1.00  0.00    -0.316 N 
ATOM     38  C   UNL     1      -4.197   0.450   1.587  1.00  0.00     0.407 C 
ATOM     39  H   UNL     1      -2.110   0.748   1.397  1.00  0.00     0.167 HD
ATOM     40  O   UNL     1      -5.120  -0.356   1.886  1.00  0.00    -0.225 OA
BRANCH  38  41
ATOM     41  O   UNL     1      -4.484   1.801   1.377  1.00  0.00    -0.444 OA
BRANCH  41  42
ATOM     42  C   UNL     1      -5.805   2.324   1.452  1.00  0.00     0.283 C 
BRANCH  42  43
ATOM     43  C   UNL     1      -5.778   3.775   1.111  1.00  0.00     0.062 A 
ATOM     44  C   UNL     1      -5.618   4.823   2.008  1.00  0.00     0.130 A 
ATOM     45  S   UNL     1      -5.815   4.411  -0.445  1.00  0.00    -0.124 S 
ATOM     46  N   UNL     1      -5.561   6.056   1.435  1.00  0.00    -0.253 NA
ATOM     47  C   UNL     1      -5.661   6.000   0.088  1.00  0.00     0.175 A 
ENDBRANCH  42  43
ENDBRANCH  41  42
ENDBRANCH  38  41
ENDBRANCH  29  37
ENDBRANCH  26  29
ENDBRANCH  25  26
ENDBRANCH   1  25
BRANCH   1  48
ATOM     48  C   UNL     1      -2.955   0.148  -1.987  1.00  0.00     0.060 C 
BRANCH  48  49
ATOM     49  C   UNL     1      -3.429  -0.306  -3.352  1.00  0.00    -0.046 A 
ATOM     50  C   UNL     1      -3.032   0.396  -4.505  1.00  0.00     0.004 A 
ATOM     51  C   UNL     1      -4.270  -1.423  -3.490  1.00  0.00     0.004 A 
ATOM     52  C   UNL     1      -3.449  -0.029  -5.771  1.00  0.00     0.000 A 
ATOM     53  C   UNL     1      -4.684  -1.844  -4.758  1.00  0.00     0.000 A 
ATOM     54  C   UNL     1      -4.273  -1.149  -5.898  1.00  0.00     0.000 A 
ENDBRANCH  48  49
ENDBRANCH   1  48
TORSDOF 20
