REMARK SMILES O=C1CN2Cc3c(ccc(Cl)c3Cl)N=C2N1
REMARK SMILES IDX 11 1 10 2 9 3 8 4 7 5 14 6 15 7 16 8 2 9 1 10 3 11 4 12 5 13
REMARK SMILES IDX 6 14 12 15 13 16
REMARK H PARENT 16 17
REMARK Flexibility Score: inf
ROOT
ATOM      1  Cl  UNL     1      -5.078  -0.860  -0.371  1.00  0.00    -0.083 Cl
ATOM      2  C   UNL     1      -3.462  -0.247  -0.041  1.00  0.00     0.060 A 
ATOM      3  C   UNL     1      -3.332   0.935   0.692  1.00  0.00     0.024 A 
ATOM      4  C   UNL     1      -2.069   1.455   0.975  1.00  0.00     0.030 A 
ATOM      5  C   UNL     1      -0.919   0.799   0.528  1.00  0.00     0.074 A 
ATOM      6  N   UNL     1       0.365   1.361   0.837  1.00  0.00    -0.215 NA
ATOM      7  C   UNL     1       1.447   0.778   0.438  1.00  0.00     0.206 C 
ATOM      8  N   UNL     1       2.752   1.255   0.693  1.00  0.00    -0.295 N 
ATOM      9  C   UNL     1       3.585   0.288   0.063  1.00  0.00     0.246 C 
ATOM     10  O   UNL     1       4.842   0.360   0.067  1.00  0.00    -0.273 OA
ATOM     11  C   UNL     1       2.803  -0.811  -0.598  1.00  0.00     0.220 C 
ATOM     12  N   UNL     1       1.427  -0.423  -0.311  1.00  0.00    -0.329 N 
ATOM     13  C   UNL     1       0.211  -1.125  -0.709  1.00  0.00     0.159 C 
ATOM     14  C   UNL     1      -1.033  -0.403  -0.218  1.00  0.00     0.017 A 
ATOM     15  C   UNL     1      -2.316  -0.923  -0.500  1.00  0.00     0.066 A 
ATOM     16  Cl  UNL     1      -2.493  -2.416  -1.426  1.00  0.00    -0.082 Cl
ATOM     17  H   UNL     1       3.037   2.111   1.218  1.00  0.00     0.173 HD
ENDROOT
TORSDOF 0
