REMARK SMILES CN1CCCC(CC2c3ccccc3Sc3ccccc32)C1
REMARK SMILES IDX 7 1 6 2 1 3 2 4 3 5 22 6 4 7 5 8 8 9 9 10 21 11 10 12 14 13
REMARK SMILES IDX 16 14 20 15 11 16 13 17 15 18 17 19 19 20 12 21 18 22
REMARK H PARENT
REMARK Flexibility Score: inf
ROOT
ATOM      1  C   UNL     1      -0.197   0.705   0.404  1.00  0.00     0.018 C 
ENDROOT
BRANCH   1   2
ATOM      2  C   UNL     1      -1.344  -0.281   0.078  1.00  0.00     0.004 C 
ATOM      3  C   UNL     1      -4.622  -1.033   1.798  1.00  0.00     0.105 C 
ATOM      4  N   UNL     1      -3.421  -1.331   1.002  1.00  0.00    -0.306 NA
ATOM      5  C   UNL     1      -3.764  -1.586  -0.421  1.00  0.00     0.084 C 
ATOM      6  C   UNL     1      -2.393  -0.281   1.207  1.00  0.00     0.087 C 
ATOM      7  C   UNL     1      -3.504  -0.370  -1.320  1.00  0.00     0.016 C 
ATOM      8  C   UNL     1      -2.023   0.045  -1.277  1.00  0.00     0.006 C 
ENDBRANCH   1   2
BRANCH   1   9
ATOM      9  C   UNL     1       0.992   0.620  -0.581  1.00  0.00     0.052 C 
ATOM     10  C   UNL     1       1.707  -0.723  -0.514  1.00  0.00    -0.026 A 
ATOM     11  C   UNL     1       1.987   1.740  -0.320  1.00  0.00    -0.026 A 
ATOM     12  C   UNL     1       1.494  -1.690  -1.512  1.00  0.00     0.005 A 
ATOM     13  C   UNL     1       2.666  -0.974   0.492  1.00  0.00     0.016 A 
ATOM     14  C   UNL     1       2.965   1.609   0.690  1.00  0.00     0.016 A 
ATOM     15  C   UNL     1       1.994   2.887  -1.133  1.00  0.00     0.005 A 
ATOM     16  C   UNL     1       2.232  -2.877  -1.514  1.00  0.00     0.000 A 
ATOM     17  C   UNL     1       3.420  -2.153   0.466  1.00  0.00     0.016 A 
ATOM     18  S   UNL     1       2.915   0.211   1.818  1.00  0.00    -0.089 SA
ATOM     19  C   UNL     1       3.963   2.579   0.834  1.00  0.00     0.016 A 
ATOM     20  C   UNL     1       2.978   3.865  -0.965  1.00  0.00     0.000 A 
ATOM     21  C   UNL     1       3.199  -3.104  -0.532  1.00  0.00     0.001 A 
ATOM     22  C   UNL     1       3.967   3.707   0.009  1.00  0.00     0.001 A 
ENDBRANCH   1   9
TORSDOF 2
