REMARK SMILES COc1ccc(C[C@@H]2c3cc(OC)c(OC)cc3CC[N@+]2(C)CCC(=O)OCCCCCOC(=O)CC[N@@+]2(C)CCc3cc(OC)c(OC)cc3[C@H]2Cc2ccc(OC)c(OC)c2)cc1OC
REMARK SMILES IDX 30 1 29 2 28 3 27 4 25 5 26 6 24 7 23 8 21 9 14 10 17 11
REMARK SMILES IDX 11 12 18 13 10 14 9 15 19 16 8 17 20 18 22 19 15 20 16 21
REMARK SMILES IDX 12 22 13 23 7 24 6 25 64 26 5 27 65 28 4 29 3 30 66 31 67 32
REMARK SMILES IDX 2 33 1 34 31 35 32 36 33 37 34 38 35 39 36 40 37 41 38 42
REMARK SMILES IDX 39 43 40 44 52 45 41 46 51 47 42 48 50 49 43 50 47 51 44 52
REMARK SMILES IDX 53 53 54 54 63 55 55 56 60 57 56 58 57 59 61 60 62 61 58 62
REMARK SMILES IDX 59 63 48 64 49 65 45 66 46 67
REMARK H PARENT
REMARK Flexibility Score: inf
ROOT
ATOM      1  C   UNL     1      -0.402  -2.971   0.612  1.00  0.00     0.007 C 
ENDROOT
BRANCH   1   2
ATOM      2  C   UNL     1       0.444  -2.160   1.609  1.00  0.00     0.042 C 
BRANCH   2   3
ATOM      3  C   UNL     1       1.956  -2.407   1.479  1.00  0.00     0.233 C 
BRANCH   3   4
ATOM      4  O   UNL     1       2.529  -1.608   0.444  1.00  0.00    -0.466 OA
BRANCH   4   5
ATOM      5  C   UNL     1       2.748  -0.231   0.570  1.00  0.00     0.311 C 
ATOM      6  O   UNL     1       2.430   0.382   1.628  1.00  0.00    -0.252 OA
BRANCH   5   7
ATOM      7  C   UNL     1       3.375   0.515  -0.565  1.00  0.00     0.184 C 
BRANCH   7   8
ATOM      8  C   UNL     1       4.889   0.172  -0.722  1.00  0.00     0.276 C 
BRANCH   8   9
ATOM      9  N   UNL     1       5.870   1.296  -0.476  1.00  0.00    -0.319 N 
ATOM     10  C   UNL     1       9.055  -0.524   3.232  1.00  0.00     0.161 A 
ATOM     11  C   UNL     1       7.697  -0.170   3.161  1.00  0.00     0.055 A 
ATOM     12  C   UNL     1       9.871  -0.334   2.114  1.00  0.00     0.161 A 
ATOM     13  C   UNL     1       7.152   0.339   1.973  1.00  0.00    -0.029 A 
ATOM     14  C   UNL     1       9.305   0.123   0.911  1.00  0.00     0.060 A 
ATOM     15  C   UNL     1       7.919   0.363   0.792  1.00  0.00     0.017 A 
ATOM     16  C   UNL     1       5.793   0.956   2.012  1.00  0.00     0.097 C 
ATOM     17  C   UNL     1       7.323   0.824  -0.557  1.00  0.00     0.221 C 
ATOM     18  C   UNL     1       5.627   1.940   0.849  1.00  0.00     0.269 C 
ATOM     19  C   UNL     1       5.670   2.342  -1.522  1.00  0.00     0.335 C 
BRANCH  10  20
ATOM     20  O   UNL     1       9.638  -1.028   4.406  1.00  0.00    -0.493 OA
ATOM     21  C   UNL     1       8.930  -1.277   5.616  1.00  0.00     0.278 C 
ENDBRANCH  10  20
BRANCH  12  22
ATOM     22  O   UNL     1      11.246  -0.594   2.243  1.00  0.00    -0.493 OA
ATOM     23  C   UNL     1      12.209  -0.399   1.211  1.00  0.00     0.278 C 
ENDBRANCH  12  22
BRANCH  17  24
ATOM     24  C   UNL     1       7.547  -0.258  -1.678  1.00  0.00     0.106 C 
BRANCH  24  25
ATOM     25  C   UNL     1       8.982  -0.455  -2.103  1.00  0.00    -0.038 A 
ATOM     26  C   UNL     1       9.663   0.563  -2.787  1.00  0.00     0.054 A 
ATOM     27  C   UNL     1       9.649  -1.654  -1.811  1.00  0.00     0.008 A 
ATOM     28  C   UNL     1      11.018   0.405  -3.140  1.00  0.00     0.160 A 
ATOM     29  C   UNL     1      10.988  -1.819  -2.163  1.00  0.00     0.051 A 
ATOM     30  C   UNL     1      11.687  -0.785  -2.815  1.00  0.00     0.160 A 
BRANCH  28  31
ATOM     31  O   UNL     1      11.737   1.411  -3.805  1.00  0.00    -0.493 OA
ATOM     32  C   UNL     1      11.199   2.680  -4.164  1.00  0.00     0.278 C 
ENDBRANCH  28  31
BRANCH  30  33
ATOM     33  O   UNL     1      13.046  -0.902  -3.149  1.00  0.00    -0.493 OA
ATOM     34  C   UNL     1      13.864  -2.017  -2.809  1.00  0.00     0.278 C 
ENDBRANCH  30  33
ENDBRANCH  24  25
ENDBRANCH  17  24
ENDBRANCH   8   9
ENDBRANCH   7   8
ENDBRANCH   5   7
ENDBRANCH   4   5
ENDBRANCH   3   4
ENDBRANCH   2   3
ENDBRANCH   1   2
BRANCH   1  35
ATOM     35  C   UNL     1      -0.193  -2.606  -0.870  1.00  0.00     0.042 C 
BRANCH  35  36
ATOM     36  C   UNL     1      -0.452  -1.132  -1.201  1.00  0.00     0.233 C 
BRANCH  36  37
ATOM     37  O   UNL     1      -1.621  -0.659  -0.539  1.00  0.00    -0.466 OA
BRANCH  37  38
ATOM     38  C   UNL     1      -2.030   0.674  -0.601  1.00  0.00     0.311 C 
ATOM     39  O   UNL     1      -1.511   1.471  -1.430  1.00  0.00    -0.252 OA
BRANCH  38  40
ATOM     40  C   UNL     1      -3.102   1.152   0.326  1.00  0.00     0.184 C 
BRANCH  40  41
ATOM     41  C   UNL     1      -4.489   0.663  -0.156  1.00  0.00     0.276 C 
BRANCH  41  42
ATOM     42  N   UNL     1      -5.667   1.099   0.675  1.00  0.00    -0.319 N 
ATOM     43  C   UNL     1      -5.374   0.813   2.111  1.00  0.00     0.335 C 
ATOM     44  C   UNL     1      -5.898   2.563   0.479  1.00  0.00     0.269 C 
ATOM     45  C   UNL     1      -6.899   0.319   0.268  1.00  0.00     0.221 C 
ATOM     46  C   UNL     1      -7.112   3.116   1.252  1.00  0.00     0.097 C 
ATOM     47  C   UNL     1      -8.142   0.814   1.001  1.00  0.00     0.017 A 
ATOM     48  C   UNL     1      -8.281   2.174   1.326  1.00  0.00    -0.029 A 
ATOM     49  C   UNL     1      -9.192  -0.074   1.290  1.00  0.00     0.060 A 
ATOM     50  C   UNL     1      -9.480   2.636   1.883  1.00  0.00     0.055 A 
ATOM     51  C   UNL     1     -10.405   0.394   1.825  1.00  0.00     0.161 A 
ATOM     52  C   UNL     1     -10.549   1.754   2.126  1.00  0.00     0.161 A 
BRANCH  45  53
ATOM     53  C   UNL     1      -7.176   0.313  -1.277  1.00  0.00     0.106 C 
BRANCH  53  54
ATOM     54  C   UNL     1      -8.415  -0.467  -1.649  1.00  0.00    -0.038 A 
ATOM     55  C   UNL     1      -9.636   0.201  -1.844  1.00  0.00     0.054 A 
ATOM     56  C   UNL     1      -8.380  -1.865  -1.708  1.00  0.00     0.008 A 
ATOM     57  C   UNL     1     -10.821  -0.524  -2.069  1.00  0.00     0.160 A 
ATOM     58  C   UNL     1      -9.548  -2.590  -1.953  1.00  0.00     0.051 A 
ATOM     59  C   UNL     1     -10.778  -1.926  -2.126  1.00  0.00     0.160 A 
BRANCH  57  60
ATOM     60  O   UNL     1     -12.065   0.111  -2.219  1.00  0.00    -0.493 OA
ATOM     61  C   UNL     1     -12.272   1.516  -2.094  1.00  0.00     0.278 C 
ENDBRANCH  57  60
BRANCH  59  62
ATOM     62  O   UNL     1     -11.978  -2.621  -2.335  1.00  0.00    -0.493 OA
ATOM     63  C   UNL     1     -12.099  -4.041  -2.337  1.00  0.00     0.278 C 
ENDBRANCH  59  62
ENDBRANCH  53  54
ENDBRANCH  45  53
BRANCH  51  64
ATOM     64  O   UNL     1     -11.492  -0.461   2.066  1.00  0.00    -0.493 OA
ATOM     65  C   UNL     1     -11.507  -1.855   1.771  1.00  0.00     0.278 C 
ENDBRANCH  51  64
BRANCH  52  66
ATOM     66  O   UNL     1     -11.764   2.187   2.681  1.00  0.00    -0.493 OA
ATOM     67  C   UNL     1     -12.035   3.526   3.084  1.00  0.00     0.278 C 
ENDBRANCH  52  66
ENDBRANCH  41  42
ENDBRANCH  40  41
ENDBRANCH  38  40
ENDBRANCH  37  38
ENDBRANCH  36  37
ENDBRANCH  35  36
ENDBRANCH   1  35
TORSDOF 26
