REMARK SMILES CC[C@@H](CO)NC(=O)[C@@H]1C=C2c3cccc4[nH]cc(c34)C[C@H]2N(C)C1
REMARK SMILES IDX 3 1 6 2 7 3 8 4 9 6 22 7 21 8 11 9 23 10 19 11 12 12 10 13
REMARK SMILES IDX 25 14 24 15 18 16 20 17 13 18 17 19 16 20 14 21 15 23 2 24
REMARK SMILES IDX 1 25 4 26 5 27
REMARK H PARENT 6 5 17 22 5 28
REMARK Flexibility Score: inf
ROOT
ATOM      1  C   UNL     1      -4.466   0.869   0.523  1.00  0.00     0.107 C 
ENDROOT
BRANCH   1   2
ATOM      2  N   UNL     1      -3.241   0.082   0.711  1.00  0.00    -0.351 N 
ATOM      3  C   UNL     1      -1.958   0.539   0.256  1.00  0.00     0.228 C 
ATOM      4  O   UNL     1      -1.838   1.685  -0.258  1.00  0.00    -0.274 OA
ATOM      5  H   UNL     1      -3.291  -0.843   1.193  1.00  0.00     0.163 HD
BRANCH   3   6
ATOM      6  C   UNL     1      -0.764  -0.376   0.329  1.00  0.00     0.115 C 
ATOM      7  C   UNL     1       1.834  -0.728  -1.011  1.00  0.00     0.091 C 
ATOM      8  C   UNL     1       3.260  -1.361  -1.152  1.00  0.00     0.061 C 
ATOM      9  C   UNL     1       1.676   0.193   0.218  1.00  0.00    -0.026 C 
ATOM     10  N   UNL     1       0.754  -1.744  -1.111  1.00  0.00    -0.298 NA
ATOM     11  C   UNL     1       4.308  -0.348  -0.818  1.00  0.00    -0.020 A 
ATOM     12  C   UNL     1       2.869   0.989   0.646  1.00  0.00    -0.011 A 
ATOM     13  C   UNL     1       0.464   0.382   0.771  1.00  0.00    -0.007 C 
ATOM     14  C   UNL     1      -0.563  -1.083  -1.028  1.00  0.00     0.102 C 
ATOM     15  C   UNL     1       0.872  -2.846  -0.134  1.00  0.00     0.106 C 
ATOM     16  C   UNL     1       5.682  -0.342  -1.038  1.00  0.00     0.087 A 
ATOM     17  C   UNL     1       4.075   0.662   0.057  1.00  0.00     0.010 A 
ATOM     18  C   UNL     1       2.893   2.063   1.572  1.00  0.00     0.009 A 
ATOM     19  N   UNL     1       6.257   0.674  -0.341  1.00  0.00    -0.361 N 
ATOM     20  C   UNL     1       5.255   1.275   0.330  1.00  0.00     0.046 A 
ATOM     21  C   UNL     1       4.115   2.723   1.865  1.00  0.00     0.003 A 
ATOM     22  H   UNL     1       7.274   0.907  -0.298  1.00  0.00     0.166 HD
ATOM     23  C   UNL     1       5.320   2.325   1.244  1.00  0.00     0.027 A 
ENDBRANCH   3   6
ENDBRANCH   1   2
BRANCH   1  24
ATOM     24  C   UNL     1      -4.893   0.904  -0.965  1.00  0.00     0.024 C 
ATOM     25  C   UNL     1      -5.003  -0.473  -1.626  1.00  0.00     0.006 C 
ENDBRANCH   1  24
BRANCH   1  26
ATOM     26  C   UNL     1      -5.593   0.390   1.461  1.00  0.00     0.180 C 
BRANCH  26  27
ATOM     27  O   UNL     1      -5.898  -0.966   1.259  1.00  0.00    -0.394 OA
ATOM     28  H   UNL     1      -5.449  -1.481   1.979  1.00  0.00     0.210 HD
ENDBRANCH  26  27
ENDBRANCH   1  26
TORSDOF 5
