REMARK SMILES O=C(O)c1cccnc1
REMARK SMILES IDX 2 1 1 2 3 3 4 5 9 6 5 7 8 8 6 9 7 10
REMARK H PARENT 3 4
REMARK Flexibility Score: inf
ROOT
ATOM      1  C   UNL     1      -1.924  -0.171  -0.142  1.00  0.00     0.337 C 
ATOM      2  O   UNL     1      -2.406  -1.043  -0.915  1.00  0.00    -0.246 OA
ENDROOT
BRANCH   1   3
ATOM      3  O   UNL     1      -2.785   0.645   0.587  1.00  0.00    -0.478 OA
ATOM      4  H   UNL     1      -3.790   0.547   0.504  1.00  0.00     0.297 HD
ENDBRANCH   1   3
BRANCH   1   5
ATOM      5  C   UNL     1      -0.460  -0.014  -0.010  1.00  0.00     0.078 A 
ATOM      6  C   UNL     1       0.082   0.956   0.849  1.00  0.00     0.126 A 
ATOM      7  C   UNL     1       0.423  -0.829  -0.739  1.00  0.00     0.019 A 
ATOM      8  N   UNL     1       1.431   1.094   0.965  1.00  0.00    -0.264 NA
ATOM      9  C   UNL     1       1.803  -0.666  -0.601  1.00  0.00     0.021 A 
ATOM     10  C   UNL     1       2.293   0.311   0.265  1.00  0.00     0.111 A 
ENDBRANCH   1   5
TORSDOF 2
