REMARK SMILES C[C@@H]1C[C@H]2[C@@H]3C[C@H](F)C4=CC(=O)C=C[C@]4(C)[C@@]3(Cl)[C@@H](O)C[C@]2(C)[C@H]1C(=O)CO
REMARK SMILES IDX 25 1 26 2 24 3 4 4 3 5 22 6 5 7 2 8 23 9 21 10 17 11 6 12
REMARK SMILES IDX 1 13 19 14 18 15 15 16 7 17 9 18 14 19 16 20 8 21 10 22
REMARK SMILES IDX 13 23 11 24 12 25 20 26 27 28 28 29
REMARK H PARENT 20 27 28 30
REMARK Flexibility Score: inf
ROOT
ATOM      1  C   UNL     1      -4.047  -0.694   0.699  1.00  0.00     0.162 C 
ATOM      2  O   UNL     1      -4.049  -1.588   1.531  1.00  0.00    -0.297 OA
ENDROOT
BRANCH   1   3
ATOM      3  C   UNL     1      -2.854  -0.597  -0.249  1.00  0.00     0.068 C 
ATOM      4  C   UNL     1      -0.665   0.109  -0.786  1.00  0.00     0.001 C 
ATOM      5  C   UNL     1      -1.551   0.995  -1.651  1.00  0.00     0.008 C 
ATOM      6  C   UNL     1      -1.524  -0.199   0.446  1.00  0.00    -0.017 C 
ATOM      7  C   UNL     1       0.780   0.558  -0.444  1.00  0.00     0.021 C 
ATOM      8  C   UNL     1      -2.972   0.410  -1.443  1.00  0.00    -0.003 C 
ATOM      9  C   UNL     1      -1.786   1.044   1.365  1.00  0.00     0.012 C 
ATOM     10  C   UNL     1      -0.847  -1.354   1.234  1.00  0.00     0.041 C 
ATOM     11  C   UNL     1       1.522  -0.595   0.345  1.00  0.00     0.086 C 
ATOM     12  C   UNL     1       1.551   0.954  -1.724  1.00  0.00     0.048 C 
ATOM     13  C   UNL     1      -3.485  -0.276  -2.717  1.00  0.00     0.008 C 
ATOM     14  C   UNL     1       0.654  -1.099   1.572  1.00  0.00     0.137 C 
ATOM     15  Cl  UNL     1       1.660  -2.045  -0.749  1.00  0.00    -0.115 Cl
ATOM     16  C   UNL     1       3.018  -0.174   0.699  1.00  0.00     0.032 C 
ATOM     17  C   UNL     1       2.997   1.356  -1.424  1.00  0.00     0.194 C 
ATOM     18  C   UNL     1       3.692   0.278  -0.612  1.00  0.00    -0.021 C 
ATOM     19  C   UNL     1       3.740  -1.352   1.359  1.00  0.00    -0.010 C 
ATOM     20  C   UNL     1       3.152   1.009   1.694  1.00  0.00     0.023 C 
ATOM     21  F   UNL     1       3.643   1.605  -2.625  1.00  0.00    -0.243 F 
ATOM     22  C   UNL     1       4.887  -0.201  -1.000  1.00  0.00     0.055 C 
ATOM     23  C   UNL     1       4.917  -1.818   0.942  1.00  0.00     0.048 C 
ATOM     24  C   UNL     1       5.563  -1.252  -0.238  1.00  0.00     0.178 C 
ATOM     25  O   UNL     1       6.689  -1.677  -0.608  1.00  0.00    -0.290 OA
BRANCH  14  26
ATOM     26  O   UNL     1       0.765  -0.309   2.727  1.00  0.00    -0.391 OA
ATOM     27  H   UNL     1       0.640   0.634   2.471  1.00  0.00     0.211 HD
ENDBRANCH  14  26
ENDBRANCH   1   3
BRANCH   1  28
ATOM     28  C   UNL     1      -5.239   0.226   0.644  1.00  0.00     0.231 C 
BRANCH  28  29
ATOM     29  O   UNL     1      -5.980  -0.027  -0.516  1.00  0.00    -0.389 OA
ATOM     30  H   UNL     1      -6.723   0.631  -0.517  1.00  0.00     0.211 HD
ENDBRANCH  28  29
ENDBRANCH   1  28
TORSDOF 4
