REMARK SMILES NC[C@@H]1O[C@H](O[C@H]2[C@@H](O)[C@H](O[C@@H]3[C@@H](O)[C@H](N)C[C@H](N)[C@H]3O[C@H]3O[C@H](CN)[C@@H](O)[C@H](O)[C@H]3N)O[C@@H]2CO)[C@H](N)[C@@H](O)[C@@H]1O
REMARK SMILES IDX 11 1 10 2 7 3 34 4 8 5 33 6 6 7 5 8 3 9 4 10 41 11 39 12
REMARK SMILES IDX 37 13 2 14 1 15 42 18 40 20 38 22 35 25 36 26 9 28 12 30
REMARK SMILES IDX 13 31 20 32 15 33 18 34 17 35 14 36 21 38 22 39 23 40 31 41
REMARK SMILES IDX 24 42 29 43 27 44 32 45 25 48 26 49 30 52 28 54 16 56 19 59
REMARK H PARENT 1 16 1 17 42 19 40 21 38 23 38 24 36 27 9 29 14 37 32 46 32 47
REMARK H PARENT 26 50 26 51 30 53 28 55 16 57 16 58 19 60 19 61
REMARK Flexibility Score: inf
ROOT
ATOM      1  O   UNL     1      -0.431   1.169  -0.319  1.00  0.00    -0.341 OA
ENDROOT
BRANCH   1   2
ATOM      2  C   UNL     1       0.880   0.785   0.105  1.00  0.00     0.282 C 
ATOM      3  C   UNL     1       2.862  -0.481  -0.306  1.00  0.00     0.186 C 
ATOM      4  C   UNL     1       2.932   0.935  -0.910  1.00  0.00     0.179 C 
ATOM      5  C   UNL     1       1.375  -0.667  -0.115  1.00  0.00     0.202 C 
ATOM      6  O   UNL     1       1.801   1.669  -0.493  1.00  0.00    -0.341 OA
BRANCH   3   7
ATOM      7  O   UNL     1       3.526  -0.536   0.948  1.00  0.00    -0.342 OA
BRANCH   7   8
ATOM      8  C   UNL     1       4.938  -0.522   0.796  1.00  0.00     0.270 C 
ATOM      9  C   UNL     1       6.795   0.867   0.944  1.00  0.00     0.166 C 
ATOM     10  O   UNL     1       5.423   0.733   1.252  1.00  0.00    -0.344 OA
ATOM     11  C   UNL     1       7.638  -0.141   1.757  1.00  0.00     0.175 C 
ATOM     12  C   UNL     1       7.098  -1.579   1.589  1.00  0.00     0.167 C 
ATOM     13  C   UNL     1       5.545  -1.642   1.656  1.00  0.00     0.139 C 
BRANCH   9  14
ATOM     14  C   UNL     1       7.229   2.314   1.205  1.00  0.00     0.112 C 
BRANCH  14  15
ATOM     15  N   UNL     1       6.505   3.234   0.331  1.00  0.00    -0.328 NA
ATOM     16  H   UNL     1       5.500   3.240   0.637  1.00  0.00     0.118 HD
ATOM     17  H   UNL     1       6.864   4.205   0.515  1.00  0.00     0.118 HD
ENDBRANCH  14  15
ENDBRANCH   9  14
BRANCH  11  18
ATOM     18  O   UNL     1       7.635   0.221   3.122  1.00  0.00    -0.388 OA
ATOM     19  H   UNL     1       8.440  -0.198   3.527  1.00  0.00     0.211 HD
ENDBRANCH  11  18
BRANCH  12  20
ATOM     20  O   UNL     1       7.528  -2.061   0.338  1.00  0.00    -0.388 OA
ATOM     21  H   UNL     1       7.552  -3.054   0.399  1.00  0.00     0.211 HD
ENDBRANCH  12  20
BRANCH  13  22
ATOM     22  N   UNL     1       5.054  -1.566   3.050  1.00  0.00    -0.321 NA
ATOM     23  H   UNL     1       5.484  -2.344   3.607  1.00  0.00     0.119 HD
ATOM     24  H   UNL     1       5.326  -0.653   3.484  1.00  0.00     0.119 HD
ENDBRANCH  13  22
ENDBRANCH   7   8
ENDBRANCH   3   7
BRANCH   4  25
ATOM     25  C   UNL     1       3.003   0.951  -2.452  1.00  0.00     0.191 C 
BRANCH  25  26
ATOM     26  O   UNL     1       3.897  -0.016  -2.949  1.00  0.00    -0.394 OA
ATOM     27  H   UNL     1       3.345  -0.753  -3.311  1.00  0.00     0.210 HD
ENDBRANCH  25  26
ENDBRANCH   4  25
BRANCH   5  28
ATOM     28  O   UNL     1       1.124  -1.517   0.981  1.00  0.00    -0.385 OA
ATOM     29  H   UNL     1       0.215  -1.329   1.326  1.00  0.00     0.211 HD
ENDBRANCH   5  28
ENDBRANCH   1   2
BRANCH   1  30
ATOM     30  C   UNL     1      -1.298   0.171  -0.843  1.00  0.00     0.182 C 
ATOM     31  C   UNL     1      -1.147   0.062  -2.390  1.00  0.00     0.163 C 
ATOM     32  C   UNL     1      -2.756   0.503  -0.439  1.00  0.00     0.170 C 
ATOM     33  C   UNL     1      -1.732   1.280  -3.163  1.00  0.00     0.084 C 
ATOM     34  C   UNL     1      -3.270   1.782  -1.152  1.00  0.00     0.084 C 
ATOM     35  C   UNL     1      -3.142   1.665  -2.684  1.00  0.00     0.043 C 
BRANCH  31  36
ATOM     36  O   UNL     1      -1.778  -1.115  -2.850  1.00  0.00    -0.389 OA
ATOM     37  H   UNL     1      -1.231  -1.881  -2.534  1.00  0.00     0.211 HD
ENDBRANCH  31  36
BRANCH  32  38
ATOM     38  O   UNL     1      -3.582  -0.601  -0.781  1.00  0.00    -0.343 OA
BRANCH  38  39
ATOM     39  C   UNL     1      -4.554  -0.909   0.206  1.00  0.00     0.270 C 
ATOM     40  O   UNL     1      -5.402   0.215   0.407  1.00  0.00    -0.344 OA
ATOM     41  C   UNL     1      -5.325  -2.166  -0.280  1.00  0.00     0.139 C 
ATOM     42  C   UNL     1      -6.428  -0.012   1.360  1.00  0.00     0.166 C 
ATOM     43  C   UNL     1      -6.669  -2.405   0.479  1.00  0.00     0.167 C 
ATOM     44  C   UNL     1      -7.404  -1.099   0.851  1.00  0.00     0.175 C 
BRANCH  41  45
ATOM     45  N   UNL     1      -5.515  -2.122  -1.739  1.00  0.00    -0.321 NA
ATOM     46  H   UNL     1      -6.053  -2.963  -2.035  1.00  0.00     0.119 HD
ATOM     47  H   UNL     1      -6.056  -1.267  -2.015  1.00  0.00     0.119 HD
ENDBRANCH  41  45
BRANCH  42  48
ATOM     48  C   UNL     1      -5.865  -0.229   2.797  1.00  0.00     0.112 C 
BRANCH  48  49
ATOM     49  N   UNL     1      -6.881  -0.054   3.833  1.00  0.00    -0.328 NA
ATOM     50  H   UNL     1      -7.568  -0.838   3.788  1.00  0.00     0.118 HD
ATOM     51  H   UNL     1      -7.386   0.851   3.689  1.00  0.00     0.118 HD
ENDBRANCH  48  49
ENDBRANCH  42  48
BRANCH  43  52
ATOM     52  O   UNL     1      -6.429  -3.157   1.650  1.00  0.00    -0.388 OA
ATOM     53  H   UNL     1      -6.394  -4.114   1.379  1.00  0.00     0.211 HD
ENDBRANCH  43  52
BRANCH  44  54
ATOM     54  O   UNL     1      -8.158  -0.624  -0.241  1.00  0.00    -0.388 OA
ATOM     55  H   UNL     1      -7.542  -0.149  -0.866  1.00  0.00     0.211 HD
ENDBRANCH  44  54
ENDBRANCH  38  39
ENDBRANCH  32  38
BRANCH  33  56
ATOM     56  N   UNL     1      -0.838   2.443  -3.156  1.00  0.00    -0.325 NA
ATOM     57  H   UNL     1       0.019   2.206  -3.711  1.00  0.00     0.119 HD
ATOM     58  H   UNL     1      -0.517   2.660  -2.192  1.00  0.00     0.119 HD
ENDBRANCH  33  56
BRANCH  34  59
ATOM     59  N   UNL     1      -2.587   2.979  -0.654  1.00  0.00    -0.325 NA
ATOM     60  H   UNL     1      -2.776   3.058   0.375  1.00  0.00     0.119 HD
ATOM     61  H   UNL     1      -3.027   3.817  -1.088  1.00  0.00     0.119 HD
ENDBRANCH  34  59
ENDBRANCH   1  30
TORSDOF 22
