REMARK SMILES CCOC(=O)N1CCC(=C2c3ccc(Cl)cc3CCc3cccnc32)CC1
REMARK SMILES IDX 4 1 5 2 6 3 7 4 8 5 9 6 26 7 27 8 10 9 3 10 2 11 1 12 11 13
REMARK SMILES IDX 17 14 12 15 16 16 13 17 14 18 15 19 18 20 25 22 20 23 24 24
REMARK SMILES IDX 21 25 23 26 22 27 19 28
REMARK H PARENT
REMARK Flexibility Score: 90.00
ROOT
ATOM      1  C   UNL     1       4.070  -0.024   0.254  1.00  0.00     0.409 C 
ATOM      2  O   UNL     1       4.902  -0.566  -0.526  1.00  0.00    -0.224 OA
ATOM      3  N   UNL     1       2.784  -0.630   0.481  1.00  0.00    -0.308 N 
ATOM      4  C   UNL     1       2.394  -1.864  -0.217  1.00  0.00     0.127 C 
ATOM      5  C   UNL     1       0.941  -1.773  -0.700  1.00  0.00     0.053 C 
ATOM      6  C   UNL     1       0.004  -1.223   0.362  1.00  0.00    -0.057 C 
ATOM      7  C   UNL     1       0.627  -0.881   1.704  1.00  0.00     0.053 C 
ATOM      8  C   UNL     1       1.896  -0.045   1.497  1.00  0.00     0.127 C 
ATOM      9  C   UNL     1      -1.309  -0.982   0.088  1.00  0.00     0.007 C 
ENDROOT
BRANCH   1  10
ATOM     10  O   UNL     1       4.400   1.170   0.910  1.00  0.00    -0.450 OA
BRANCH  10  11
ATOM     11  C   UNL     1       5.623   1.871   0.701  1.00  0.00     0.231 C 
ATOM     12  C   UNL     1       5.596   2.615  -0.630  1.00  0.00     0.049 C 
ENDBRANCH  10  11
ENDBRANCH   1  10
BRANCH   9  13
ATOM     13  C   UNL     1      -2.213  -0.408   1.103  1.00  0.00    -0.013 A 
ATOM     14  C   UNL     1      -2.661   0.913   0.957  1.00  0.00    -0.038 A 
ATOM     15  C   UNL     1      -2.638  -1.176   2.198  1.00  0.00     0.010 A 
ATOM     16  C   UNL     1      -3.540   1.457   1.907  1.00  0.00     0.024 A 
ATOM     17  C   UNL     1      -3.502  -0.625   3.147  1.00  0.00     0.021 A 
ATOM     18  C   UNL     1      -3.954   0.691   3.002  1.00  0.00     0.041 A 
ATOM     19  Cl  UNL     1      -5.048   1.377   4.190  1.00  0.00    -0.084 Cl
BRANCH  14  20
ATOM     20  C   UNL     1      -2.235   1.705  -0.248  1.00  0.00     0.041 CG0
ATOM     21  G   UNL     1      -2.950   1.196  -1.503  1.00  0.00     0.000 G0
ENDBRANCH  14  20
ENDBRANCH   9  13
BRANCH   9  22
ATOM     22  C   UNL     1      -1.890  -1.208  -1.261  1.00  0.00     0.074 A 
ATOM     23  C   UNL     1      -2.624  -0.216  -1.981  1.00  0.00    -0.021 A 
ATOM     24  N   UNL     1      -1.742  -2.448  -1.808  1.00  0.00    -0.256 NA
ATOM     25  C   UNL     1      -3.146  -0.571  -3.238  1.00  0.00     0.007 A 
ATOM     26  C   UNL     1      -2.243  -2.783  -3.023  1.00  0.00     0.112 A 
ATOM     27  C   UNL     1      -2.953  -1.846  -3.762  1.00  0.00     0.020 A 
BRANCH  23  28
ATOM     28  C   UNL     1      -2.950   1.196  -1.503  1.00  0.00     0.042 CG0
ATOM     29  G   UNL     1      -2.235   1.705  -0.248  1.00  0.00     0.000 G0
ENDBRANCH  23  28
ENDBRANCH   9  22
TORSDOF 2
