REMARK SMILES CCCOc1ccc(C(=O)OCCN(CC)CC)cc1N
REMARK SMILES IDX 9 1 10 2 8 3 5 4 20 5 6 6 19 7 7 8 4 9 3 10 2 11 1 12 21 13
REMARK SMILES IDX 11 16 12 17 13 18 14 19 15 20 16 21 17 22 18 23
REMARK H PARENT 21 14 21 15
REMARK Flexibility Score: inf
ROOT
ATOM      1  C   UNL     1      -0.180   0.180  -1.346  1.00  0.00     0.338 C 
ATOM      2  O   UNL     1      -0.518   1.268  -1.891  1.00  0.00    -0.246 OA
ENDROOT
BRANCH   1   3
ATOM      3  C   UNL     1       1.249  -0.111  -1.095  1.00  0.00     0.062 A 
ATOM      4  C   UNL     1       3.974  -0.673  -0.604  1.00  0.00     0.142 A 
ATOM      5  C   UNL     1       2.982  -1.603  -0.242  1.00  0.00     0.075 A 
ATOM      6  C   UNL     1       3.590   0.535  -1.218  1.00  0.00     0.049 A 
ATOM      7  C   UNL     1       1.631  -1.318  -0.487  1.00  0.00     0.045 A 
ATOM      8  C   UNL     1       2.243   0.812  -1.458  1.00  0.00     0.019 A 
BRANCH   4   9
ATOM      9  O   UNL     1       5.321  -0.988  -0.348  1.00  0.00    -0.491 OA
BRANCH   9  10
ATOM     10  C   UNL     1       6.432  -0.104  -0.509  1.00  0.00     0.229 C 
BRANCH  10  11
ATOM     11  C   UNL     1       6.466   0.956   0.599  1.00  0.00     0.038 C 
ATOM     12  C   UNL     1       6.607   0.325   1.982  1.00  0.00     0.007 C 
ENDBRANCH  10  11
ENDBRANCH   9  10
ENDBRANCH   4   9
BRANCH   5  13
ATOM     13  N   UNL     1       3.338  -2.842   0.383  1.00  0.00    -0.396 N 
ATOM     14  H   UNL     1       2.603  -3.533   0.653  1.00  0.00     0.156 HD
ATOM     15  H   UNL     1       4.333  -3.084   0.587  1.00  0.00     0.156 HD
ENDBRANCH   5  13
ENDBRANCH   1   3
BRANCH   1  16
ATOM     16  O   UNL     1      -1.156  -0.758  -0.985  1.00  0.00    -0.461 OA
BRANCH  16  17
ATOM     17  C   UNL     1      -2.557  -0.534  -1.135  1.00  0.00     0.248 C 
BRANCH  17  18
ATOM     18  C   UNL     1      -3.063   0.434  -0.047  1.00  0.00     0.126 C 
BRANCH  18  19
ATOM     19  N   UNL     1      -4.538   0.559  -0.003  1.00  0.00    -0.301 NA
BRANCH  19  20
ATOM     20  C   UNL     1      -5.205  -0.641   0.555  1.00  0.00     0.081 C 
ATOM     21  C   UNL     1      -5.897  -0.275   1.862  1.00  0.00     0.021 C 
ENDBRANCH  19  20
BRANCH  19  22
ATOM     22  C   UNL     1      -5.110   1.008  -1.291  1.00  0.00     0.081 C 
ATOM     23  C   UNL     1      -6.456   1.696  -1.078  1.00  0.00     0.021 C 
ENDBRANCH  19  22
ENDBRANCH  18  19
ENDBRANCH  17  18
ENDBRANCH  16  17
ENDBRANCH   1  16
TORSDOF 11
