REMARK SMILES CN(C)[C@@H]1C(O)=C(C(N)=O)C(=O)[C@@]2(O)C(O)=C3C(=O)c4c(O)cccc4[C@@](C)(O)[C@H]3C[C@@H]12
REMARK SMILES IDX 32 1 31 2 30 3 17 4 15 5 13 6 11 7 12 8 7 9 5 10 4 11 18 12
REMARK SMILES IDX 19 13 20 14 21 15 23 16 24 17 25 18 26 19 27 20 28 21 14 22
REMARK SMILES IDX 2 24 1 25 3 26 16 27 6 29 29 31 8 33 9 34 10 35 22 38
REMARK H PARENT 14 23 16 28 6 30 29 32 9 36 9 37 22 39
REMARK Flexibility Score: inf
ROOT
ATOM      1  C   UNL     1       1.169   0.468   0.876  1.00  0.00     0.062 C 
ATOM      2  C   UNL     1       0.063  -0.604   0.877  1.00  0.00     0.021 C 
ATOM      3  C   UNL     1      -1.334   0.027   0.658  1.00  0.00     0.063 C 
ATOM      4  C   UNL     1      -1.324   1.094  -0.414  1.00  0.00     0.048 C 
ATOM      5  C   UNL     1      -0.189   1.614  -0.949  1.00  0.00     0.140 C 
ATOM      6  C   UNL     1       1.206   1.198  -0.495  1.00  0.00     0.190 C 
ATOM      7  C   UNL     1       1.839   0.312  -1.552  1.00  0.00     0.211 C 
ATOM      8  O   UNL     1       1.711   0.620  -2.769  1.00  0.00    -0.290 OA
ATOM      9  C   UNL     1       2.677  -0.862  -1.186  1.00  0.00     0.125 C 
ATOM     10  C   UNL     1       2.942  -1.133   0.113  1.00  0.00     0.126 C 
ATOM     11  C   UNL     1       2.559  -0.157   1.215  1.00  0.00     0.130 C 
ATOM     12  C   UNL     1      -2.634   1.707  -0.662  1.00  0.00     0.197 C 
ATOM     13  O   UNL     1      -2.743   2.963  -0.655  1.00  0.00    -0.289 OA
ATOM     14  C   UNL     1      -3.828   0.841  -0.739  1.00  0.00     0.070 A 
ATOM     15  C   UNL     1      -5.031   1.281  -1.359  1.00  0.00     0.127 A 
ATOM     16  C   UNL     1      -6.158   0.459  -1.352  1.00  0.00     0.047 A 
ATOM     17  C   UNL     1      -6.089  -0.828  -0.835  1.00  0.00     0.004 A 
ATOM     18  C   UNL     1      -4.898  -1.300  -0.294  1.00  0.00     0.008 A 
ATOM     19  C   UNL     1      -3.762  -0.468  -0.186  1.00  0.00    -0.001 A 
ATOM     20  C   UNL     1      -2.454  -1.055   0.395  1.00  0.00     0.095 C 
ATOM     21  C   UNL     1      -2.762  -1.756   1.742  1.00  0.00     0.048 C 
ENDROOT
BRANCH   6  22
ATOM     22  O   UNL     1       2.006   2.352  -0.391  1.00  0.00    -0.374 OA
ATOM     23  H   UNL     1       1.566   2.976   0.245  1.00  0.00     0.212 HD
ENDBRANCH   6  22
BRANCH  11  24
ATOM     24  N   UNL     1       3.614   0.886   1.412  1.00  0.00    -0.299 NA
ATOM     25  C   UNL     1       3.357   1.690   2.626  1.00  0.00     0.105 C 
ATOM     26  C   UNL     1       4.962   0.291   1.530  1.00  0.00     0.105 C 
ENDBRANCH  11  24
BRANCH   5  27
ATOM     27  O   UNL     1      -0.248   2.558  -1.982  1.00  0.00    -0.508 OA
ATOM     28  H   UNL     1      -1.098   2.794  -2.480  1.00  0.00     0.293 HD
ENDBRANCH   5  27
BRANCH  10  29
ATOM     29  O   UNL     1       3.571  -2.320   0.507  1.00  0.00    -0.510 OA
ATOM     30  H   UNL     1       3.749  -3.093  -0.120  1.00  0.00     0.293 HD
ENDBRANCH  10  29
BRANCH  20  31
ATOM     31  O   UNL     1      -1.984  -2.033  -0.501  1.00  0.00    -0.385 OA
ATOM     32  H   UNL     1      -1.783  -1.579  -1.362  1.00  0.00     0.211 HD
ENDBRANCH  20  31
BRANCH   9  33
ATOM     33  C   UNL     1       3.177  -1.734  -2.272  1.00  0.00     0.255 C 
ATOM     34  N   UNL     1       4.557  -2.097  -2.343  1.00  0.00    -0.365 N 
ATOM     35  O   UNL     1       2.386  -2.126  -3.172  1.00  0.00    -0.269 OA
ATOM     36  H   UNL     1       5.246  -1.716  -1.657  1.00  0.00     0.159 HD
ATOM     37  H   UNL     1       4.899  -2.720  -3.108  1.00  0.00     0.159 HD
ENDBRANCH   9  33
BRANCH  15  38
ATOM     38  O   UNL     1      -5.143   2.502  -2.031  1.00  0.00    -0.507 OA
ATOM     39  H   UNL     1      -4.353   3.056  -2.329  1.00  0.00     0.293 HD
ENDBRANCH  15  38
TORSDOF 7
