REMARK SMILES CC(C)C(=O)Nc1ccc([N+](=O)[O-])c(C(F)(F)F)c1
REMARK SMILES IDX 7 1 19 2 14 3 10 4 9 5 8 6 6 7 4 8 5 9 2 11 1 12 3 13 15 14
REMARK SMILES IDX 16 15 17 16 18 17 11 18 13 19 12 20
REMARK H PARENT 6 10
REMARK Flexibility Score: inf
ROOT
ATOM      1  C   UNL     1      -0.554   0.290   0.628  1.00  0.00     0.042 A 
ATOM      2  C   UNL     1      -1.162  -0.351  -0.463  1.00  0.00     0.046 A 
ATOM      3  C   UNL     1      -2.540  -0.202  -0.721  1.00  0.00     0.135 A 
ATOM      4  C   UNL     1      -3.307   0.651   0.120  1.00  0.00     0.281 A 
ATOM      5  C   UNL     1      -2.695   1.249   1.234  1.00  0.00     0.088 A 
ATOM      6  C   UNL     1      -1.337   1.063   1.489  1.00  0.00     0.033 A 
ENDROOT
BRANCH   1   7
ATOM      7  N   UNL     1       0.845   0.115   0.915  1.00  0.00    -0.326 N 
ATOM      8  C   UNL     1       1.859  -0.024  -0.092  1.00  0.00     0.226 C 
ATOM      9  O   UNL     1       1.609   0.273  -1.293  1.00  0.00    -0.274 OA
ATOM     10  H   UNL     1       1.152   0.181   1.912  1.00  0.00     0.169 HD
BRANCH   8  11
ATOM     11  C   UNL     1       3.254  -0.442   0.298  1.00  0.00     0.072 C 
ATOM     12  C   UNL     1       4.196   0.765   0.268  1.00  0.00     0.018 C 
ATOM     13  C   UNL     1       3.765  -1.559  -0.618  1.00  0.00     0.018 C 
ENDBRANCH   8  11
ENDBRANCH   1   7
BRANCH   3  14
ATOM     14  C   UNL     1      -3.162  -0.945  -1.888  1.00  0.00     0.423 C 
ATOM     15  F   UNL     1      -3.326  -0.078  -2.953  1.00  0.00    -0.166 F 
ATOM     16  F   UNL     1      -4.389  -1.471  -1.527  1.00  0.00    -0.166 F 
ATOM     17  F   UNL     1      -2.362  -1.997  -2.301  1.00  0.00    -0.166 F 
ENDBRANCH   3  14
BRANCH   4  18
ATOM     18  N   UNL     1      -4.698   0.921  -0.127  1.00  0.00     0.063 N 
ATOM     19  O   UNL     1      -5.554   1.132   0.929  1.00  0.00    -0.258 OA
ATOM     20  O   UNL     1      -5.100   1.166  -1.283  1.00  0.00    -0.258 OA
ENDBRANCH   4  18
TORSDOF 4
