REMARK SMILES CCOC(=O)C=C(C)C=CC=C(C)C=Cc1c(C)cc(OC)c(C)c1C
REMARK SMILES IDX 9 1 10 2 7 3 6 4 8 5 4 6 5 7 3 8 2 9 1 10 11 11 12 12 13 13
REMARK SMILES IDX 14 14 15 15 16 16 25 17 17 18 26 19 23 20 19 21 18 22 24 23
REMARK SMILES IDX 20 24 21 25 22 26
REMARK H PARENT
REMARK Flexibility Score: inf
ROOT
ATOM      1  C   UNL     1       2.880   1.669  -1.542  1.00  0.00     0.003 C 
ATOM      2  C   UNL     1       1.600   1.740  -1.151  1.00  0.00     0.001 C 
ENDROOT
BRANCH   1   3
ATOM      3  C   UNL     1       3.916   0.813  -0.913  1.00  0.00    -0.044 C 
ATOM      4  C   UNL     1       4.754   0.141  -1.727  1.00  0.00     0.096 C 
ATOM      5  C   UNL     1       4.090   0.840   0.586  1.00  0.00     0.044 C 
BRANCH   4   6
ATOM      6  C   UNL     1       5.858  -0.742  -1.294  1.00  0.00     0.330 C 
ATOM      7  O   UNL     1       6.704  -1.111  -2.153  1.00  0.00    -0.247 OA
BRANCH   6   8
ATOM      8  O   UNL     1       5.952  -1.199   0.025  1.00  0.00    -0.463 OA
BRANCH   8   9
ATOM      9  C   UNL     1       7.035  -1.991   0.508  1.00  0.00     0.230 C 
ATOM     10  C   UNL     1       8.272  -1.130   0.728  1.00  0.00     0.049 C 
ENDBRANCH   8   9
ENDBRANCH   6   8
ENDBRANCH   4   6
ENDBRANCH   1   3
BRANCH   2  11
ATOM     11  C   UNL     1       1.000   0.858  -0.124  1.00  0.00     0.003 C 
ATOM     12  C   UNL     1      -0.206   1.077   0.431  1.00  0.00    -0.051 C 
ATOM     13  C   UNL     1      -0.739   0.073   1.419  1.00  0.00     0.044 C 
BRANCH  12  14
ATOM     14  C   UNL     1      -0.989   2.301   0.121  1.00  0.00     0.004 C 
ATOM     15  C   UNL     1      -2.306   2.321  -0.131  1.00  0.00     0.009 C 
BRANCH  15  16
ATOM     16  C   UNL     1      -3.154   1.108  -0.218  1.00  0.00    -0.019 A 
ATOM     17  C   UNL     1      -4.125   0.845   0.783  1.00  0.00    -0.037 A 
ATOM     18  C   UNL     1      -3.025   0.233  -1.321  1.00  0.00    -0.040 A 
ATOM     19  C   UNL     1      -4.292   1.781   1.965  1.00  0.00     0.045 C 
ATOM     20  C   UNL     1      -4.964  -0.296   0.662  1.00  0.00    -0.005 A 
ATOM     21  C   UNL     1      -3.799  -0.930  -1.376  1.00  0.00     0.050 A 
ATOM     22  C   UNL     1      -2.044   0.500  -2.438  1.00  0.00     0.045 C 
ATOM     23  C   UNL     1      -6.032  -0.584   1.695  1.00  0.00     0.049 C 
ATOM     24  C   UNL     1      -4.764  -1.206  -0.396  1.00  0.00     0.122 A 
BRANCH  24  25
ATOM     25  O   UNL     1      -5.545  -2.375  -0.447  1.00  0.00    -0.496 OA
ATOM     26  C   UNL     1      -5.435  -3.385  -1.446  1.00  0.00     0.278 C 
ENDBRANCH  24  25
ENDBRANCH  15  16
ENDBRANCH  12  14
ENDBRANCH   2  11
TORSDOF 8
