REMARK SMILES O=C1CC2(CCCC2)CC(=O)N1CCCCN1CCN(c2ncccn2)CC1
REMARK SMILES IDX 15 1 14 2 13 3 12 4 1 5 2 6 3 7 4 8 10 9 5 10 9 11 8 12
REMARK SMILES IDX 11 13 6 14 7 15 16 16 17 17 18 18 28 19 19 20 27 21 20 22
REMARK SMILES IDX 21 23 22 24 26 25 23 26 25 27 24 28
REMARK H PARENT
REMARK Flexibility Score: inf
ROOT
ATOM      1  C   UNL     1      -0.212  -3.122  -0.382  1.00  0.00     0.017 C 
ENDROOT
BRANCH   1   2
ATOM      2  C   UNL     1       0.924  -2.128  -0.084  1.00  0.00     0.023 C 
BRANCH   2   3
ATOM      3  C   UNL     1       1.677  -1.686  -1.347  1.00  0.00     0.128 C 
BRANCH   3   4
ATOM      4  N   UNL     1       2.780  -0.785  -0.986  1.00  0.00    -0.283 N 
ATOM      5  O   UNL     1       4.307  -2.558  -0.774  1.00  0.00    -0.274 OA
ATOM      6  C   UNL     1       4.085  -1.320  -0.679  1.00  0.00     0.229 C 
ATOM      7  C   UNL     1       5.211  -0.408  -0.285  1.00  0.00     0.108 C 
ATOM      8  C   UNL     1       4.691   0.819   0.501  1.00  0.00    -0.012 C 
ATOM      9  C   UNL     1       2.518   0.620  -0.776  1.00  0.00     0.229 C 
ATOM     10  C   UNL     1       5.841   1.781   0.836  1.00  0.00     0.008 C 
ATOM     11  C   UNL     1       3.615   1.550  -0.345  1.00  0.00     0.108 C 
ATOM     12  C   UNL     1       4.139   0.427   1.886  1.00  0.00     0.008 C 
ATOM     13  O   UNL     1       1.368   1.095  -0.986  1.00  0.00    -0.274 OA
ATOM     14  C   UNL     1       5.433   2.499   2.120  1.00  0.00     0.001 C 
ATOM     15  C   UNL     1       4.362   1.637   2.789  1.00  0.00     0.001 C 
ENDBRANCH   3   4
ENDBRANCH   2   3
ENDBRANCH   1   2
BRANCH   1  16
ATOM     16  C   UNL     1      -1.374  -2.509  -1.184  1.00  0.00     0.084 C 
BRANCH  16  17
ATOM     17  N   UNL     1      -1.890  -1.286  -0.533  1.00  0.00    -0.300 NA
ATOM     18  C   UNL     1      -2.422  -0.336  -1.537  1.00  0.00     0.106 C 
ATOM     19  C   UNL     1      -2.815  -1.587   0.591  1.00  0.00     0.106 C 
ATOM     20  C   UNL     1      -3.279   0.755  -0.891  1.00  0.00     0.135 C 
ATOM     21  C   UNL     1      -4.282  -1.245   0.291  1.00  0.00     0.135 C 
ATOM     22  N   UNL     1      -4.399   0.147  -0.162  1.00  0.00    -0.338 N 
BRANCH  22  23
ATOM     23  C   UNL     1      -5.618   0.886   0.056  1.00  0.00     0.225 A 
ATOM     24  N   UNL     1      -6.754   0.242   0.447  1.00  0.00    -0.221 NA
ATOM     25  N   UNL     1      -5.646   2.235  -0.134  1.00  0.00    -0.221 NA
ATOM     26  C   UNL     1      -7.917   0.918   0.643  1.00  0.00     0.117 A 
ATOM     27  C   UNL     1      -6.786   2.948   0.059  1.00  0.00     0.117 A 
ATOM     28  C   UNL     1      -7.955   2.299   0.460  1.00  0.00     0.040 A 
ENDBRANCH  22  23
ENDBRANCH  16  17
ENDBRANCH   1  16
TORSDOF 6
