REMARK SMILES C#C[C@]1(O)CC[C@H]2[C@@H]3CCC4=CC(=O)CC[C@@H]4[C@H]3CC[C@@]21CC
REMARK SMILES IDX 7 1 6 2 5 3 3 4 21 5 20 6 19 7 18 8 17 9 16 10 15 11 13 12
REMARK SMILES IDX 14 13 12 14 11 15 10 16 9 17 8 18 22 19 23 20 4 21 2 23 1 24
REMARK H PARENT 4 22
REMARK Flexibility Score: inf
ROOT
ATOM      1  C   UNL     1      -1.166   0.752   0.852  1.00  0.00     0.003 C 
ATOM      2  C   UNL     1      -2.016   1.027   2.084  1.00  0.00     0.008 C 
ATOM      3  C   UNL     1      -3.460   1.033   1.556  1.00  0.00     0.050 C 
ATOM      4  C   UNL     1      -3.413   0.535   0.081  1.00  0.00     0.131 C 
ATOM      5  C   UNL     1      -2.026  -0.192  -0.020  1.00  0.00     0.013 C 
ATOM      6  C   UNL     1      -1.350  -0.230  -1.420  1.00  0.00     0.011 C 
ATOM      7  C   UNL     1       0.109  -0.731  -1.319  1.00  0.00     0.005 C 
ATOM      8  C   UNL     1       0.974   0.124  -0.344  1.00  0.00    -0.000 C 
ATOM      9  C   UNL     1       2.418  -0.441  -0.183  1.00  0.00     0.019 C 
ATOM     10  C   UNL     1       3.163  -0.474  -1.543  1.00  0.00     0.016 C 
ATOM     11  C   UNL     1       4.627  -0.882  -1.379  1.00  0.00     0.081 C 
ATOM     12  C   UNL     1       5.297  -0.010  -0.367  1.00  0.00     0.155 C 
ATOM     13  O   UNL     1       6.534   0.211  -0.447  1.00  0.00    -0.295 OA
ATOM     14  C   UNL     1       4.531   0.527   0.766  1.00  0.00     0.046 C 
ATOM     15  C   UNL     1       3.198   0.371   0.856  1.00  0.00    -0.063 C 
ATOM     16  C   UNL     1       2.514   0.774   2.141  1.00  0.00     0.032 C 
ATOM     17  C   UNL     1       1.094   1.283   1.894  1.00  0.00     0.008 C 
ATOM     18  C   UNL     1       0.292   0.276   1.051  1.00  0.00    -0.003 C 
ENDROOT
BRANCH   5  19
ATOM     19  C   UNL     1      -2.140  -1.652   0.592  1.00  0.00     0.008 C 
ATOM     20  C   UNL     1      -2.677  -2.734  -0.359  1.00  0.00     0.004 C 
ENDBRANCH   5  19
BRANCH   4  21
ATOM     21  O   UNL     1      -4.485  -0.337  -0.183  1.00  0.00    -0.377 OA
ATOM     22  H   UNL     1      -5.329   0.143   0.032  1.00  0.00     0.212 HD
ENDBRANCH   4  21
BRANCH   4  23
ATOM     23  C   UNL     1      -3.512   1.695  -0.840  1.00  0.00    -0.071 C 
ATOM     24  C   UNL     1      -3.596   2.639  -1.586  1.00  0.00     0.007 C 
ENDBRANCH   4  23
TORSDOF 3
