REMARK SMILES Cc1[nH]cnc1CN1CCc2c(c3ccccc3n2C)C1=O
REMARK SMILES IDX 7 1 8 2 20 3 19 4 11 5 18 6 12 7 10 8 13 9 17 10 21 11 9 12
REMARK SMILES IDX 14 13 16 14 22 15 15 16 6 17 2 18 5 19 1 20 3 21 4 22
REMARK H PARENT 3 23
REMARK Flexibility Score: inf
ROOT
ATOM      1  C   UNL     1      -2.353   0.038  -1.762  1.00  0.00     0.177 C 
ENDROOT
BRANCH   1   2
ATOM      2  N   UNL     1      -1.141   0.319  -0.983  1.00  0.00    -0.332 N 
ATOM      3  C   UNL     1       3.603   2.337   0.265  1.00  0.00     0.150 C 
ATOM      4  N   UNL     1       2.792   1.120   0.257  1.00  0.00    -0.347 N 
ATOM      5  C   UNL     1       1.492   1.003  -0.117  1.00  0.00     0.033 A 
ATOM      6  C   UNL     1       3.229  -0.148   0.447  1.00  0.00     0.049 A 
ATOM      7  C   UNL     1       1.115  -0.323  -0.160  1.00  0.00     0.068 A 
ATOM      8  C   UNL     1       0.595   2.097  -0.632  1.00  0.00     0.076 C 
ATOM      9  C   UNL     1       2.222  -1.058   0.207  1.00  0.00     0.013 A 
ATOM     10  C   UNL     1       4.519  -0.572   0.787  1.00  0.00     0.027 A 
ATOM     11  C   UNL     1      -0.204  -0.727  -0.649  1.00  0.00     0.256 C 
ATOM     12  C   UNL     1      -0.888   1.689  -0.490  1.00  0.00     0.126 C 
ATOM     13  C   UNL     1       2.432  -2.434   0.298  1.00  0.00     0.011 A 
ATOM     14  C   UNL     1       4.754  -1.954   0.896  1.00  0.00     0.002 A 
ATOM     15  O   UNL     1      -0.492  -1.943  -0.806  1.00  0.00    -0.269 OA
ATOM     16  C   UNL     1       3.716  -2.880   0.654  1.00  0.00     0.001 A 
ENDBRANCH   1   2
BRANCH   1  17
ATOM     17  C   UNL     1      -3.578   0.260  -0.926  1.00  0.00     0.080 A 
ATOM     18  C   UNL     1      -4.063  -0.560   0.074  1.00  0.00     0.036 A 
ATOM     19  N   UNL     1      -4.336   1.373  -0.998  1.00  0.00    -0.240 NA
ATOM     20  C   UNL     1      -3.478  -1.850   0.552  1.00  0.00     0.066 C 
ATOM     21  N   UNL     1      -5.128   0.040   0.630  1.00  0.00    -0.348 N 
ATOM     22  C   UNL     1      -5.273   1.199  -0.040  1.00  0.00     0.197 A 
ATOM     23  H   UNL     1      -5.712  -0.306   1.424  1.00  0.00     0.167 HD
ENDBRANCH   1  17
TORSDOF 2
