REMARK SMILES CN1C(CCl)Nc2cc(Cl)c(S(N)(=O)=O)cc2S1(=O)=O
REMARK SMILES IDX 1 1 2 2 3 3 6 4 7 5 8 6 9 7 10 8 11 9 16 10 17 11 18 12
REMARK SMILES IDX 19 13 20 14 4 16 5 17 12 18 14 19 15 20 13 21
REMARK H PARENT 6 15 13 22 13 23
REMARK Flexibility Score: inf
ROOT
ATOM      1  C   UNL     1      -2.804   1.965   0.554  1.00  0.00     0.127 C 
ATOM      2  N   UNL     1      -2.606   0.868  -0.405  1.00  0.00    -0.178 NA
ATOM      3  C   UNL     1      -2.718  -0.446   0.271  1.00  0.00     0.180 C 
ATOM      4  N   UNL     1      -1.614  -0.676   1.213  1.00  0.00    -0.367 N 
ATOM      5  C   UNL     1      -0.228  -0.551   0.856  1.00  0.00     0.057 A 
ATOM      6  C   UNL     1       0.752  -1.171   1.641  1.00  0.00     0.049 A 
ATOM      7  C   UNL     1       2.107  -1.065   1.307  1.00  0.00     0.063 A 
ATOM      8  Cl  UNL     1       3.280  -1.882   2.336  1.00  0.00    -0.083 Cl
ATOM      9  C   UNL     1       2.498  -0.322   0.174  1.00  0.00     0.102 A 
ATOM     10  C   UNL     1       1.513   0.312  -0.600  1.00  0.00     0.047 A 
ATOM     11  C   UNL     1       0.160   0.203  -0.258  1.00  0.00     0.107 A 
ATOM     12  S   UNL     1      -1.056   1.044  -1.196  1.00  0.00     0.246 S 
ATOM     13  O   UNL     1      -0.684   2.497  -1.310  1.00  0.00    -0.207 OA
ATOM     14  O   UNL     1      -1.130   0.446  -2.573  1.00  0.00    -0.207 OA
ATOM     15  H   UNL     1      -1.857  -1.011   2.173  1.00  0.00     0.162 HD
ENDROOT
BRANCH   3  16
ATOM     16  C   UNL     1      -2.811  -1.605  -0.734  1.00  0.00     0.151 C 
ATOM     17  Cl  UNL     1      -4.171  -1.365  -1.863  1.00  0.00    -0.123 Cl
ENDBRANCH   3  16
BRANCH   9  18
ATOM     18  S   UNL     1       4.207  -0.176  -0.269  1.00  0.00     0.239 S 
ATOM     19  O   UNL     1       4.772  -1.547  -0.513  1.00  0.00    -0.207 OA
ATOM     20  O   UNL     1       4.955   0.478   0.859  1.00  0.00    -0.207 OA
BRANCH  18  21
ATOM     21  N   UNL     1       4.429   0.772  -1.700  1.00  0.00    -0.225 NA
ATOM     22  H   UNL     1       3.875   0.325  -2.464  1.00  0.00     0.137 HD
ATOM     23  H   UNL     1       4.020   1.717  -1.520  1.00  0.00     0.137 HD
ENDBRANCH  18  21
ENDBRANCH   9  18
TORSDOF 3
