REMARK SMILES C[N+](C)(CCCCCC[N+](C)(C)C1c2ccccc2-c2ccccc21)C1c2ccccc2-c2ccccc21
REMARK SMILES IDX 6 1 5 2 4 3 2 4 1 5 3 6 26 7 27 8 38 9 32 10 28 11 33 12
REMARK SMILES IDX 37 13 31 14 29 15 34 16 36 17 30 18 35 19 7 20 8 21 9 22
REMARK SMILES IDX 10 23 11 24 12 25 13 26 14 27 25 28 19 29 15 30 20 31 24 32
REMARK SMILES IDX 18 33 16 34 21 35 23 36 17 37 22 38
REMARK H PARENT
REMARK Flexibility Score: inf
ROOT
ATOM      1  C   UNL     1      -0.472  -1.537   0.237  1.00  0.00     0.006 C 
ENDROOT
BRANCH   1   2
ATOM      2  C   UNL     1      -1.381  -0.909  -0.833  1.00  0.00     0.061 C 
BRANCH   2   3
ATOM      3  C   UNL     1      -2.370   0.142  -0.257  1.00  0.00     0.264 C 
BRANCH   3   4
ATOM      4  N   UNL     1      -3.632   0.345  -1.046  1.00  0.00    -0.318 N 
ATOM      5  C   UNL     1      -3.263   0.667  -2.452  1.00  0.00     0.335 C 
ATOM      6  C   UNL     1      -4.313   1.544  -0.480  1.00  0.00     0.335 C 
BRANCH   4   7
ATOM      7  C   UNL     1      -4.543  -0.871  -0.997  1.00  0.00     0.249 C 
ATOM      8  C   UNL     1      -5.083  -1.183   0.396  1.00  0.00     0.022 A 
ATOM      9  C   UNL     1      -5.864  -0.667  -1.729  1.00  0.00     0.022 A 
ATOM     10  C   UNL     1      -6.447  -0.952   0.473  1.00  0.00    -0.008 A 
ATOM     11  C   UNL     1      -4.426  -1.799   1.467  1.00  0.00     0.011 A 
ATOM     12  C   UNL     1      -6.935  -0.642  -0.852  1.00  0.00    -0.008 A 
ATOM     13  C   UNL     1      -6.094  -0.669  -3.112  1.00  0.00     0.011 A 
ATOM     14  C   UNL     1      -7.177  -1.211   1.633  1.00  0.00     0.009 A 
ATOM     15  C   UNL     1      -5.131  -2.038   2.658  1.00  0.00     0.001 A 
ATOM     16  C   UNL     1      -8.255  -0.556  -1.299  1.00  0.00     0.009 A 
ATOM     17  C   UNL     1      -7.411  -0.549  -3.584  1.00  0.00     0.001 A 
ATOM     18  C   UNL     1      -6.501  -1.731   2.745  1.00  0.00     0.001 A 
ATOM     19  C   UNL     1      -8.487  -0.487  -2.679  1.00  0.00     0.001 A 
ENDBRANCH   4   7
ENDBRANCH   3   4
ENDBRANCH   2   3
ENDBRANCH   1   2
BRANCH   1  20
ATOM     20  C   UNL     1       0.354  -0.533   1.059  1.00  0.00     0.006 C 
BRANCH  20  21
ATOM     21  C   UNL     1       1.515   0.087   0.267  1.00  0.00     0.061 C 
BRANCH  21  22
ATOM     22  C   UNL     1       2.401   0.942   1.208  1.00  0.00     0.264 C 
BRANCH  22  23
ATOM     23  N   UNL     1       3.634   1.526   0.589  1.00  0.00    -0.318 N 
ATOM     24  C   UNL     1       4.321   2.310   1.654  1.00  0.00     0.335 C 
ATOM     25  C   UNL     1       3.222   2.478  -0.476  1.00  0.00     0.335 C 
BRANCH  23  26
ATOM     26  C   UNL     1       4.554   0.464   0.017  1.00  0.00     0.249 C 
ATOM     27  C   UNL     1       5.078  -0.527   1.053  1.00  0.00     0.022 A 
ATOM     28  C   UNL     1       5.881   1.018  -0.492  1.00  0.00     0.022 A 
ATOM     29  C   UNL     1       6.445  -0.393   1.233  1.00  0.00    -0.008 A 
ATOM     30  C   UNL     1       4.396  -1.572   1.692  1.00  0.00     0.011 A 
ATOM     31  C   UNL     1       6.944   0.568   0.274  1.00  0.00    -0.008 A 
ATOM     32  C   UNL     1       6.120   1.771  -1.648  1.00  0.00     0.011 A 
ATOM     33  C   UNL     1       7.165  -1.216   2.100  1.00  0.00     0.009 A 
ATOM     34  C   UNL     1       5.096  -2.397   2.587  1.00  0.00     0.001 A 
ATOM     35  C   UNL     1       8.266   0.889  -0.039  1.00  0.00     0.009 A 
ATOM     36  C   UNL     1       7.439   2.133  -1.964  1.00  0.00     0.001 A 
ATOM     37  C   UNL     1       6.471  -2.208   2.805  1.00  0.00     0.001 A 
ATOM     38  C   UNL     1       8.506   1.700  -1.156  1.00  0.00     0.001 A 
ENDBRANCH  23  26
ENDBRANCH  22  23
ENDBRANCH  21  22
ENDBRANCH  20  21
ENDBRANCH   1  20
TORSDOF 9
