REMARK SMILES CCOC(=O)c1ccc(C#Cc2ccc3c(c2)C(C)(C)CCS3)nc1
REMARK SMILES IDX 6 1 25 2 24 3 9 4 8 5 7 6 4 7 5 8 3 9 2 10 1 11 10 12 11 13
REMARK SMILES IDX 12 14 17 15 13 16 16 17 14 18 15 19 18 20 23 21 21 22 19 23
REMARK SMILES IDX 20 24 22 25
REMARK H PARENT
REMARK Flexibility Score: inf
ROOT
ATOM      1  C   UNL     1       4.988  -0.356  -0.077  1.00  0.00     0.078 A 
ATOM      2  C   UNL     1       4.077  -0.029   0.942  1.00  0.00     0.128 A 
ATOM      3  N   UNL     1       2.751   0.090   0.665  1.00  0.00    -0.247 NA
ATOM      4  C   UNL     1       2.260  -0.099  -0.588  1.00  0.00     0.113 A 
ATOM      5  C   UNL     1       3.126  -0.426  -1.635  1.00  0.00     0.038 A 
ATOM      6  C   UNL     1       4.492  -0.554  -1.377  1.00  0.00     0.020 A 
ENDROOT
BRANCH   1   7
ATOM      7  C   UNL     1       6.431  -0.487   0.216  1.00  0.00     0.339 C 
ATOM      8  O   UNL     1       7.240  -0.779  -0.708  1.00  0.00    -0.246 OA
BRANCH   7   9
ATOM      9  O   UNL     1       6.896  -0.293   1.523  1.00  0.00    -0.462 OA
BRANCH   9  10
ATOM     10  C   UNL     1       8.275  -0.348   1.884  1.00  0.00     0.230 C 
ATOM     11  C   UNL     1       8.996   0.922   1.448  1.00  0.00     0.049 C 
ENDBRANCH   9  10
ENDBRANCH   7   9
ENDBRANCH   1   7
BRANCH   4  12
ATOM     12  C   UNL     1       0.850   0.038  -0.827  1.00  0.00    -0.041 C 
ATOM     13  C   UNL     1      -0.333   0.153  -1.028  1.00  0.00    -0.060 C 
BRANCH  13  14
ATOM     14  C   UNL     1      -1.746   0.289  -1.267  1.00  0.00     0.025 A 
ATOM     15  C   UNL     1      -2.665  -0.311  -0.400  1.00  0.00     0.022 A 
ATOM     16  C   UNL     1      -2.199   1.037  -2.352  1.00  0.00     0.018 A 
ATOM     17  C   UNL     1      -4.061  -0.187  -0.605  1.00  0.00    -0.027 A 
ATOM     18  C   UNL     1      -3.566   1.166  -2.586  1.00  0.00     0.016 A 
ATOM     19  C   UNL     1      -4.499   0.547  -1.744  1.00  0.00     0.011 A 
ATOM     20  C   UNL     1      -5.022  -0.729   0.478  1.00  0.00    -0.008 C 
ATOM     21  S   UNL     1      -6.224   0.683  -2.231  1.00  0.00    -0.126 SA
ATOM     22  C   UNL     1      -6.531  -0.536   0.140  1.00  0.00     0.022 C 
ATOM     23  C   UNL     1      -4.730  -0.007   1.817  1.00  0.00     0.016 C 
ATOM     24  C   UNL     1      -4.782  -2.245   0.672  1.00  0.00     0.016 C 
ATOM     25  C   UNL     1      -6.832   0.795  -0.536  1.00  0.00     0.076 C 
ENDBRANCH  13  14
ENDBRANCH   4  12
TORSDOF 5
