REMARK SMILES CC(C(=O)O)c1ccc(-c2ccccc2)c(F)c1
REMARK SMILES IDX 1 1 2 2 3 3 4 4 5 5 6 7 18 8 7 9 16 10 8 11 17 12 9 13 10 14
REMARK SMILES IDX 11 15 15 16 12 17 14 18 13 19
REMARK H PARENT 5 6
REMARK Flexibility Score: inf
ROOT
ATOM      1  C   UNL     1      -3.929  -1.491   0.133  1.00  0.00     0.025 C 
ATOM      2  C   UNL     1      -3.375  -0.153  -0.373  1.00  0.00     0.126 C 
ENDROOT
BRANCH   2   3
ATOM      3  C   UNL     1      -3.996   1.018   0.340  1.00  0.00     0.310 C 
ATOM      4  O   UNL     1      -4.211   0.977   1.583  1.00  0.00    -0.252 OA
BRANCH   3   5
ATOM      5  O   UNL     1      -4.291   2.177  -0.372  1.00  0.00    -0.481 OA
ATOM      6  H   UNL     1      -4.693   2.983   0.091  1.00  0.00     0.296 HD
ENDBRANCH   3   5
ENDBRANCH   2   3
BRANCH   2   7
ATOM      7  C   UNL     1      -1.864  -0.105  -0.265  1.00  0.00    -0.031 A 
ATOM      8  C   UNL     1      -1.224  -0.174   0.985  1.00  0.00     0.044 A 
ATOM      9  C   UNL     1      -1.079   0.010  -1.424  1.00  0.00     0.005 A 
ATOM     10  C   UNL     1       0.171  -0.132   1.076  1.00  0.00     0.131 A 
ATOM     11  C   UNL     1       0.314   0.054  -1.336  1.00  0.00     0.012 A 
ATOM     12  F   UNL     1       0.750  -0.162   2.303  1.00  0.00    -0.206 F 
ATOM     13  C   UNL     1       0.955  -0.022  -0.088  1.00  0.00     0.017 A 
BRANCH  13  14
ATOM     14  C   UNL     1       2.436   0.019  -0.012  1.00  0.00    -0.015 A 
ATOM     15  C   UNL     1       3.159   0.979  -0.744  1.00  0.00     0.009 A 
ATOM     16  C   UNL     1       3.139  -0.910   0.777  1.00  0.00     0.009 A 
ATOM     17  C   UNL     1       4.555   1.014  -0.677  1.00  0.00     0.001 A 
ATOM     18  C   UNL     1       4.535  -0.871   0.839  1.00  0.00     0.001 A 
ATOM     19  C   UNL     1       5.243   0.091   0.114  1.00  0.00     0.000 A 
ENDBRANCH  13  14
ENDBRANCH   2   7
TORSDOF 4
