REMARK SMILES Nc1nc(=O)c2c(CCc3ccc(C(=O)N[C@@H](CCC(=O)O)C(=O)O)cc3)c[nH]c2[nH]1
REMARK SMILES IDX 14 1 15 2 16 3 13 5 10 6 11 7 27 8 12 9 26 10 9 11 8 12 7 13
REMARK SMILES IDX 2 14 3 15 31 16 4 17 30 18 5 20 6 21 29 22 28 23 1 25 17 28
REMARK SMILES IDX 18 29 19 30 20 31 21 32 22 33 23 35 24 36 25 37
REMARK H PARENT 16 4 31 19 29 24 1 26 1 27 22 34 25 38
REMARK Flexibility Score: inf
ROOT
ATOM      1  C   UNL     1      -3.372  -0.346   1.350  1.00  0.00     0.251 C 
ATOM      2  O   UNL     1      -4.034   0.057   2.346  1.00  0.00    -0.269 OA
ATOM      3  N   UNL     1      -4.062  -0.783   0.163  1.00  0.00    -0.339 N 
ATOM      4  H   UNL     1      -3.519  -0.981  -0.712  1.00  0.00     0.164 HD
ENDROOT
BRANCH   1   5
ATOM      5  C   UNL     1      -1.889  -0.325   1.411  1.00  0.00     0.039 A 
ATOM      6  C   UNL     1       0.930  -0.255   1.547  1.00  0.00    -0.048 A 
ATOM      7  C   UNL     1       0.285  -1.117   0.645  1.00  0.00     0.004 A 
ATOM      8  C   UNL     1       0.159   0.573   2.377  1.00  0.00     0.004 A 
ATOM      9  C   UNL     1      -1.111  -1.160   0.583  1.00  0.00     0.014 A 
ATOM     10  C   UNL     1      -1.237   0.535   2.315  1.00  0.00     0.014 A 
BRANCH   6  11
ATOM     11  C   UNL     1       2.433  -0.176   1.579  1.00  0.00     0.040 C 
BRANCH  11  12
ATOM     12  C   UNL     1       2.928   1.006   0.736  1.00  0.00     0.043 C 
BRANCH  12  13
ATOM     13  C   UNL     1       4.428   1.025   0.671  1.00  0.00    -0.015 A 
ATOM     14  C   UNL     1       7.369  -0.036  -1.985  1.00  0.00     0.202 A 
ATOM     15  N   UNL     1       6.086  -0.194  -2.442  1.00  0.00    -0.175 NA
ATOM     16  N   UNL     1       7.598   0.431  -0.716  1.00  0.00    -0.312 N 
ATOM     17  C   UNL     1       5.008   0.109  -1.660  1.00  0.00     0.284 A 
ATOM     18  C   UNL     1       6.531   0.753   0.067  1.00  0.00     0.123 A 
ATOM     19  H   UNL     1       8.571   0.546  -0.355  1.00  0.00     0.171 HD
ATOM     20  O   UNL     1       3.841  -0.054  -2.105  1.00  0.00    -0.266 OA
ATOM     21  C   UNL     1       5.246   0.605  -0.371  1.00  0.00     0.087 A 
ATOM     22  N   UNL     1       6.580   1.230   1.327  1.00  0.00    -0.347 N 
ATOM     23  C   UNL     1       5.292   1.396   1.705  1.00  0.00     0.088 A 
ATOM     24  H   UNL     1       7.433   1.429   1.900  1.00  0.00     0.167 HD
BRANCH  14  25
ATOM     25  N   UNL     1       8.466  -0.358  -2.839  1.00  0.00    -0.369 N 
ATOM     26  H   UNL     1       9.451  -0.259  -2.505  1.00  0.00     0.159 HD
ATOM     27  H   UNL     1       8.293  -0.699  -3.812  1.00  0.00     0.159 HD
ENDBRANCH  14  25
ENDBRANCH  12  13
ENDBRANCH  11  12
ENDBRANCH   6  11
ENDBRANCH   1   5
BRANCH   3  28
ATOM     28  C   UNL     1      -5.507  -1.033   0.141  1.00  0.00     0.192 C 
BRANCH  28  29
ATOM     29  C   UNL     1      -6.110  -0.629  -1.220  1.00  0.00     0.049 C 
BRANCH  29  30
ATOM     30  C   UNL     1      -5.915   0.859  -1.547  1.00  0.00     0.125 C 
BRANCH  30  31
ATOM     31  C   UNL     1      -6.702   1.739  -0.628  1.00  0.00     0.303 C 
ATOM     32  O   UNL     1      -6.139   2.293   0.355  1.00  0.00    -0.252 OA
BRANCH  31  33
ATOM     33  O   UNL     1      -8.064   1.922  -0.844  1.00  0.00    -0.481 OA
ATOM     34  H   UNL     1      -8.613   2.508  -0.227  1.00  0.00     0.296 HD
ENDBRANCH  31  33
ENDBRANCH  30  31
ENDBRANCH  29  30
ENDBRANCH  28  29
BRANCH  28  35
ATOM     35  C   UNL     1      -5.767  -2.488   0.407  1.00  0.00     0.326 C 
ATOM     36  O   UNL     1      -5.147  -3.374  -0.241  1.00  0.00    -0.250 OA
BRANCH  35  37
ATOM     37  O   UNL     1      -6.724  -2.860   1.344  1.00  0.00    -0.480 OA
ATOM     38  H   UNL     1      -6.927  -3.837   1.522  1.00  0.00     0.296 HD
ENDBRANCH  35  37
ENDBRANCH  28  35
ENDBRANCH   3  28
TORSDOF 12
