REMARK SMILES NCCCCCC(=O)O
REMARK SMILES IDX 4 1 3 2 2 3 1 4 5 7 6 8 7 9 8 10 9 11
REMARK H PARENT 1 5 1 6 9 12
REMARK Flexibility Score: inf
ROOT
ATOM      1  C   UNL     1       0.149   0.058  -0.492  1.00  0.00     0.002 C 
ENDROOT
BRANCH   1   2
ATOM      2  C   UNL     1       1.168  -0.189   0.632  1.00  0.00     0.015 C 
BRANCH   2   3
ATOM      3  C   UNL     1       2.320   0.822   0.590  1.00  0.00     0.077 C 
BRANCH   3   4
ATOM      4  N   UNL     1       3.131   0.639  -0.611  1.00  0.00    -0.330 NA
ATOM      5  H   UNL     1       3.856   1.392  -0.623  1.00  0.00     0.118 HD
ATOM      6  H   UNL     1       3.645  -0.268  -0.523  1.00  0.00     0.118 HD
ENDBRANCH   3   4
ENDBRANCH   2   3
ENDBRANCH   1   2
BRANCH   1   7
ATOM      7  C   UNL     1      -0.946  -1.023  -0.551  1.00  0.00     0.012 C 
BRANCH   7   8
ATOM      8  C   UNL     1      -1.893  -1.032   0.659  1.00  0.00     0.122 C 
BRANCH   8   9
ATOM      9  C   UNL     1      -2.659   0.249   0.780  1.00  0.00     0.303 C 
ATOM     10  O   UNL     1      -2.334   1.101   1.649  1.00  0.00    -0.252 OA
BRANCH   9  11
ATOM     11  O   UNL     1      -3.714   0.510  -0.089  1.00  0.00    -0.481 OA
ATOM     12  H   UNL     1      -4.235   1.376  -0.029  1.00  0.00     0.296 HD
ENDBRANCH   9  11
ENDBRANCH   8   9
ENDBRANCH   7   8
ENDBRANCH   1   7
TORSDOF 7
