REMARK SMILES N[C@@H](CCC(=O)O)C(=O)O
REMARK SMILES IDX 3 1 2 2 1 3 8 6 9 7 10 8 4 10 5 11 6 12 7 13
REMARK H PARENT 1 4 1 5 10 9 7 14
REMARK Flexibility Score: inf
ROOT
ATOM      1  C   UNL     1      -0.112   0.143   0.915  1.00  0.00     0.042 C 
ENDROOT
BRANCH   1   2
ATOM      2  C   UNL     1      -0.676   0.627  -0.438  1.00  0.00     0.162 C 
BRANCH   2   3
ATOM      3  N   UNL     1      -1.657   1.689  -0.210  1.00  0.00    -0.318 NA
ATOM      4  H   UNL     1      -1.988   2.045  -1.137  1.00  0.00     0.119 HD
ATOM      5  H   UNL     1      -2.490   1.297   0.289  1.00  0.00     0.119 HD
ENDBRANCH   2   3
BRANCH   2   6
ATOM      6  C   UNL     1      -1.300  -0.506  -1.213  1.00  0.00     0.320 C 
ATOM      7  O   UNL     1      -0.866  -0.798  -2.360  1.00  0.00    -0.251 OA
BRANCH   6   8
ATOM      8  O   UNL     1      -2.356  -1.230  -0.668  1.00  0.00    -0.480 OA
ATOM      9  H   UNL     1      -2.782  -1.993  -1.180  1.00  0.00     0.296 HD
ENDBRANCH   6   8
ENDBRANCH   2   6
ENDBRANCH   1   2
BRANCH   1  10
ATOM     10  C   UNL     1       1.031  -0.876   0.777  1.00  0.00     0.125 C 
BRANCH  10  11
ATOM     11  C   UNL     1       2.250  -0.265   0.157  1.00  0.00     0.303 C 
ATOM     12  O   UNL     1       2.534  -0.503  -1.047  1.00  0.00    -0.252 OA
BRANCH  11  13
ATOM     13  O   UNL     1       3.053   0.589   0.906  1.00  0.00    -0.481 OA
ATOM     14  H   UNL     1       3.875   1.020   0.498  1.00  0.00     0.296 HD
ENDBRANCH  11  13
ENDBRANCH  10  11
ENDBRANCH   1  10
TORSDOF 7
