REMARK SMILES N[C@@H](Cc1cc(I)c(Oc2ccc(O)c(I)c2)c(I)c1)C(=O)O
REMARK SMILES IDX 4 1 5 2 6 3 7 4 8 5 18 6 19 7 20 8 3 9 2 10 1 11 21 14 22 15
REMARK SMILES IDX 23 16 9 18 10 19 17 20 11 21 15 22 12 23 16 24 13 25 14 26
REMARK H PARENT 1 12 1 13 23 17 14 27
REMARK Flexibility Score: inf
ROOT
ATOM      1  C   UNL     1      -1.818  -0.353  -0.140  1.00  0.00    -0.043 A 
ATOM      2  C   UNL     1      -1.074   0.146   0.941  1.00  0.00     0.022 A 
ATOM      3  C   UNL     1       0.191   0.704   0.734  1.00  0.00     0.057 A 
ATOM      4  I   UNL     1       1.225   1.502   2.401  1.00  0.00    -0.040 I 
ATOM      5  C   UNL     1       0.729   0.763  -0.565  1.00  0.00     0.154 A 
ATOM      6  C   UNL     1      -0.023   0.286  -1.649  1.00  0.00     0.057 A 
ATOM      7  I   UNL     1       0.743   0.374  -3.618  1.00  0.00    -0.040 I 
ATOM      8  C   UNL     1      -1.287  -0.271  -1.436  1.00  0.00     0.022 A 
ENDROOT
BRANCH   1   9
ATOM      9  C   UNL     1      -3.193  -0.931   0.080  1.00  0.00     0.066 C 
BRANCH   9  10
ATOM     10  C   UNL     1      -4.303   0.081  -0.262  1.00  0.00     0.166 C 
BRANCH  10  11
ATOM     11  N   UNL     1      -4.299   1.195   0.689  1.00  0.00    -0.318 NA
ATOM     12  H   UNL     1      -5.090   1.837   0.448  1.00  0.00     0.119 HD
ATOM     13  H   UNL     1      -3.430   1.757   0.539  1.00  0.00     0.119 HD
ENDBRANCH  10  11
BRANCH  10  14
ATOM     14  C   UNL     1      -5.636  -0.611  -0.221  1.00  0.00     0.320 C 
ATOM     15  O   UNL     1      -6.241  -0.880  -1.294  1.00  0.00    -0.251 OA
BRANCH  14  16
ATOM     16  O   UNL     1      -6.191  -0.985   1.000  1.00  0.00    -0.480 OA
ATOM     17  H   UNL     1      -7.083  -1.461   1.041  1.00  0.00     0.296 HD
ENDBRANCH  14  16
ENDBRANCH  10  14
ENDBRANCH   9  10
ENDBRANCH   1   9
BRANCH   5  18
ATOM     18  O   UNL     1       1.996   1.309  -0.795  1.00  0.00    -0.455 OA
BRANCH  18  19
ATOM     19  C   UNL     1       3.198   0.699  -0.406  1.00  0.00     0.128 A 
ATOM     20  C   UNL     1       3.247  -0.624   0.074  1.00  0.00     0.065 A 
ATOM     21  C   UNL     1       4.385   1.431  -0.515  1.00  0.00     0.051 A 
ATOM     22  C   UNL     1       4.467  -1.195   0.452  1.00  0.00     0.058 A 
ATOM     23  C   UNL     1       5.605   0.862  -0.139  1.00  0.00     0.051 A 
ATOM     24  I   UNL     1       4.495  -3.180   1.176  1.00  0.00    -0.040 I 
ATOM     25  C   UNL     1       5.651  -0.451   0.347  1.00  0.00     0.129 A 
BRANCH  25  26
ATOM     26  O   UNL     1       6.867  -1.019   0.724  1.00  0.00    -0.507 OA
ATOM     27  H   UNL     1       7.736  -0.503   0.658  1.00  0.00     0.293 HD
ENDBRANCH  25  26
ENDBRANCH  18  19
ENDBRANCH   5  18
TORSDOF 8
