REMARK SMILES CCOC(=O)Nc1ccc2c(c1)N(C(=O)CCN1CCOCC1)c1ccccc1S2
REMARK SMILES IDX 7 1 12 2 11 3 10 4 30 5 29 6 28 7 27 8 26 9 25 10 24 11
REMARK SMILES IDX 13 12 9 13 8 14 6 15 4 16 5 17 3 19 2 20 1 21 14 22 15 23
REMARK SMILES IDX 16 24 17 25 18 26 19 27 23 28 20 29 22 30 21 31
REMARK H PARENT 6 18
REMARK Flexibility Score: inf
ROOT
ATOM      1  C   UNL     1       2.817   0.473   1.598  1.00  0.00     0.046 A 
ATOM      2  C   UNL     1       1.937   0.344   0.507  1.00  0.00     0.054 A 
ATOM      3  C   UNL     1       0.712  -0.331   0.654  1.00  0.00     0.065 A 
ATOM      4  C   UNL     1       0.385  -0.897   1.901  1.00  0.00     0.037 A 
ATOM      5  S   UNL     1      -1.182  -1.754   2.097  1.00  0.00    -0.086 SA
ATOM      6  C   UNL     1      -0.981  -2.677   0.569  1.00  0.00     0.036 A 
ATOM      7  C   UNL     1      -1.243  -4.050   0.528  1.00  0.00     0.017 A 
ATOM      8  C   UNL     1      -1.131  -4.745  -0.680  1.00  0.00     0.001 A 
ATOM      9  C   UNL     1      -0.745  -4.071  -1.843  1.00  0.00     0.002 A 
ATOM     10  C   UNL     1      -0.457  -2.704  -1.800  1.00  0.00     0.028 A 
ATOM     11  C   UNL     1      -0.584  -1.995  -0.595  1.00  0.00     0.063 A 
ATOM     12  N   UNL     1      -0.122  -0.633  -0.487  1.00  0.00    -0.279 N 
ATOM     13  C   UNL     1       1.257  -0.773   2.984  1.00  0.00     0.020 A 
ATOM     14  C   UNL     1       2.458  -0.076   2.838  1.00  0.00     0.027 A 
ENDROOT
BRANCH   1  15
ATOM     15  N   UNL     1       4.058   1.190   1.484  1.00  0.00    -0.291 N 
ATOM     16  C   UNL     1       4.862   1.247   0.299  1.00  0.00     0.411 C 
ATOM     17  O   UNL     1       4.663   0.440  -0.651  1.00  0.00    -0.224 OA
ATOM     18  H   UNL     1       4.447   1.642   2.342  1.00  0.00     0.173 HD
BRANCH  16  19
ATOM     19  O   UNL     1       5.908   2.174   0.232  1.00  0.00    -0.450 OA
BRANCH  19  20
ATOM     20  C   UNL     1       6.727   2.356  -0.922  1.00  0.00     0.231 C 
ATOM     21  C   UNL     1       5.976   3.135  -1.994  1.00  0.00     0.049 C 
ENDBRANCH  19  20
ENDBRANCH  16  19
ENDBRANCH   1  15
BRANCH  12  22
ATOM     22  C   UNL     1      -0.550   0.398  -1.407  1.00  0.00     0.232 C 
ATOM     23  O   UNL     1       0.112   1.465  -1.513  1.00  0.00    -0.274 OA
BRANCH  22  24
ATOM     24  C   UNL     1      -1.839   0.291  -2.183  1.00  0.00     0.116 C 
BRANCH  24  25
ATOM     25  C   UNL     1      -2.927   1.180  -1.568  1.00  0.00     0.094 C 
BRANCH  25  26
ATOM     26  N   UNL     1      -3.215   0.793  -0.168  1.00  0.00    -0.298 NA
ATOM     27  C   UNL     1      -3.856   1.907   0.553  1.00  0.00     0.113 C 
ATOM     28  C   UNL     1      -4.073  -0.412  -0.104  1.00  0.00     0.113 C 
ATOM     29  C   UNL     1      -4.115   1.515   2.024  1.00  0.00     0.175 C 
ATOM     30  C   UNL     1      -4.634  -0.626   1.316  1.00  0.00     0.175 C 
ATOM     31  O   UNL     1      -3.913   0.134   2.262  1.00  0.00    -0.379 OA
ENDBRANCH  25  26
ENDBRANCH  24  25
ENDBRANCH  22  24
ENDBRANCH  12  22
TORSDOF 7
