REMARK SMILES C=C1/C(=C\C=C2/CCC[C@]3(C)[C@@H]([C@H](C)CCCC(C)(C)O)CC[C@@H]23)C[C@@H](O)C[C@@H]1O
REMARK SMILES IDX 15 1 13 2 14 3 12 4 22 5 10 6 23 7 24 8 9 9 11 10 6 11 8 12
REMARK SMILES IDX 7 13 5 14 4 15 3 16 25 17 2 18 26 19 29 20 1 21 28 22 27 23
REMARK SMILES IDX 30 25 16 27 17 28 18 29 19 30 20 31 21 32
REMARK H PARENT 27 24 30 26 21 33
REMARK Flexibility Score: inf
ROOT
ATOM      1  C   UNL     1       3.439   0.681   0.871  1.00  0.00     0.004 C 
ENDROOT
BRANCH   1   2
ATOM      2  C   UNL     1       2.887  -0.311   1.933  1.00  0.00    -0.011 C 
ATOM      3  C   UNL     1       3.656  -0.137   3.257  1.00  0.00     0.008 C 
BRANCH   2   4
ATOM      4  C   UNL     1       1.341  -0.216   2.198  1.00  0.00    -0.002 C 
ATOM      5  C   UNL     1       0.704   1.198   2.169  1.00  0.00     0.005 C 
ATOM      6  C   UNL     1       0.410  -1.089   1.315  1.00  0.00    -0.023 C 
ATOM      7  C   UNL     1      -0.750   1.005   1.696  1.00  0.00     0.009 C 
ATOM      8  C   UNL     1      -0.955  -0.512   1.699  1.00  0.00     0.021 C 
ATOM      9  C   UNL     1       0.405  -2.593   1.690  1.00  0.00     0.008 C 
ATOM     10  C   UNL     1       0.712  -0.910  -0.204  1.00  0.00     0.012 C 
ATOM     11  C   UNL     1      -2.070  -1.163   0.910  1.00  0.00    -0.067 C 
ATOM     12  C   UNL     1      -0.717  -3.359   0.951  1.00  0.00     0.005 C 
ATOM     13  C   UNL     1      -2.112  -2.684   1.006  1.00  0.00     0.031 C 
ATOM     14  C   UNL     1      -3.066  -0.433   0.366  1.00  0.00    -0.000 C 
BRANCH  14  15
ATOM     15  C   UNL     1      -4.287  -1.014  -0.238  1.00  0.00     0.004 C 
ATOM     16  C   UNL     1      -5.092  -0.336  -1.083  1.00  0.00    -0.040 C 
ATOM     17  C   UNL     1      -6.415  -0.932  -1.503  1.00  0.00     0.067 C 
ATOM     18  C   UNL     1      -4.751   0.989  -1.668  1.00  0.00    -0.023 C 
ATOM     19  C   UNL     1      -7.541   0.113  -1.453  1.00  0.00     0.121 C 
ATOM     20  C   UNL     1      -5.863   2.023  -1.701  1.00  0.00     0.146 C 
ATOM     21  C   UNL     1      -3.546   1.211  -2.215  1.00  0.00     0.015 C 
ATOM     22  C   UNL     1      -7.154   1.383  -2.239  1.00  0.00     0.068 C 
BRANCH  19  23
ATOM     23  O   UNL     1      -7.825   0.433  -0.114  1.00  0.00    -0.393 OA
ATOM     24  H   UNL     1      -8.730   0.841  -0.103  1.00  0.00     0.210 HD
ENDBRANCH  19  23
BRANCH  20  25
ATOM     25  O   UNL     1      -5.540   3.128  -2.508  1.00  0.00    -0.388 OA
ATOM     26  H   UNL     1      -5.006   3.750  -1.945  1.00  0.00     0.211 HD
ENDBRANCH  20  25
ENDBRANCH  14  15
ENDBRANCH   2   4
ENDBRANCH   1   2
BRANCH   1  27
ATOM     27  C   UNL     1       4.749   0.190   0.232  1.00  0.00     0.003 C 
BRANCH  27  28
ATOM     28  C   UNL     1       5.195   1.134  -0.901  1.00  0.00     0.034 C 
BRANCH  28  29
ATOM     29  C   UNL     1       6.596   0.795  -1.484  1.00  0.00     0.059 C 
ATOM     30  C   UNL     1       6.964   1.835  -2.561  1.00  0.00     0.042 C 
ATOM     31  C   UNL     1       6.602  -0.604  -2.127  1.00  0.00     0.042 C 
BRANCH  29  32
ATOM     32  O   UNL     1       7.571   0.815  -0.467  1.00  0.00    -0.390 OA
ATOM     33  H   UNL     1       7.563   1.718  -0.051  1.00  0.00     0.211 HD
ENDBRANCH  29  32
ENDBRANCH  28  29
ENDBRANCH  27  28
ENDBRANCH   1  27
TORSDOF 9
