REMARK SMILES CCCCCc1cc(O)c2c(c1)OC(C)(C)[C@@H]1CCC(C)=C[C@@H]21
REMARK SMILES IDX 5 1 6 2 23 3 22 4 17 5 10 6 20 7 18 8 14 9 11 10 8 11 21 12
REMARK SMILES IDX 19 13 15 14 16 15 13 16 12 17 7 18 9 19 4 21 3 22 2 23 1 24
REMARK H PARENT 9 20
REMARK Flexibility Score: inf
ROOT
ATOM      1  C   UNL     1       3.547  -0.554   0.480  1.00  0.00     0.036 C 
ENDROOT
BRANCH   1   2
ATOM      2  C   UNL     1       2.070  -0.484   0.195  1.00  0.00    -0.041 A 
ATOM      3  C   UNL     1      -2.205  -0.514  -0.354  1.00  0.00     0.056 C 
ATOM      4  C   UNL     1      -2.882  -1.085  -1.580  1.00  0.00    -0.019 C 
ATOM      5  C   UNL     1      -2.796   0.846   0.100  1.00  0.00     0.044 C 
ATOM      6  C   UNL     1      -0.693  -0.374  -0.333  1.00  0.00     0.043 A 
ATOM      7  C   UNL     1      -4.218  -0.987  -1.702  1.00  0.00    -0.077 C 
ATOM      8  C   UNL     1      -4.310   1.033  -0.239  1.00  0.00     0.013 C 
ATOM      9  C   UNL     1      -2.394   1.099   1.602  1.00  0.00     0.107 C 
ATOM     10  C   UNL     1      -0.180   0.094   0.893  1.00  0.00     0.127 A 
ATOM     11  C   UNL     1       0.218  -0.681  -1.376  1.00  0.00     0.123 A 
ATOM     12  C   UNL     1      -4.916  -1.625  -2.871  1.00  0.00     0.039 C 
ATOM     13  C   UNL     1      -5.005  -0.276  -0.625  1.00  0.00     0.031 C 
ATOM     14  C   UNL     1      -2.471   2.603   1.919  1.00  0.00     0.056 C 
ATOM     15  C   UNL     1      -3.293   0.335   2.599  1.00  0.00     0.056 C 
ATOM     16  O   UNL     1      -1.033   0.683   1.846  1.00  0.00    -0.487 OA
ATOM     17  C   UNL     1       1.187   0.007   1.164  1.00  0.00     0.050 A 
ATOM     18  C   UNL     1       1.582  -0.795  -1.083  1.00  0.00     0.050 A 
BRANCH  11  19
ATOM     19  O   UNL     1      -0.161  -0.793  -2.713  1.00  0.00    -0.507 OA
ATOM     20  H   UNL     1      -0.952  -0.289  -3.091  1.00  0.00     0.293 HD
ENDBRANCH  11  19
ENDBRANCH   1   2
BRANCH   1  21
ATOM     21  C   UNL     1       4.231   0.767   0.105  1.00  0.00     0.005 C 
BRANCH  21  22
ATOM     22  C   UNL     1       5.707   0.820   0.535  1.00  0.00     0.000 C 
BRANCH  22  23
ATOM     23  C   UNL     1       6.609  -0.169  -0.232  1.00  0.00    -0.003 C 
ATOM     24  C   UNL     1       6.958  -1.404   0.600  1.00  0.00     0.004 C 
ENDBRANCH  22  23
ENDBRANCH  21  22
ENDBRANCH   1  21
TORSDOF 5
