REMARK SMILES CC(N)Cc1ccccc1
REMARK SMILES IDX 1 1 2 2 3 3 4 6 5 7 6 8 10 9 7 10 9 11 8 12
REMARK H PARENT 3 4 3 5
REMARK Flexibility Score: inf
ROOT
ATOM      1  C   UNL     1       1.975   0.301  -1.020  1.00  0.00     0.024 C 
ATOM      2  C   UNL     1       1.666  -0.826  -0.028  1.00  0.00     0.051 C 
ENDROOT
BRANCH   2   3
ATOM      3  N   UNL     1       2.922  -1.402   0.455  1.00  0.00    -0.328 NA
ATOM      4  H   UNL     1       2.704  -2.242   1.039  1.00  0.00     0.119 HD
ATOM      5  H   UNL     1       3.408  -0.710   1.071  1.00  0.00     0.119 HD
ENDBRANCH   2   3
BRANCH   2   6
ATOM      6  C   UNL     1       0.804  -0.330   1.155  1.00  0.00     0.053 C 
BRANCH   6   7
ATOM      7  C   UNL     1      -0.579   0.080   0.715  1.00  0.00    -0.046 A 
ATOM      8  C   UNL     1      -1.555  -0.895   0.452  1.00  0.00     0.004 A 
ATOM      9  C   UNL     1      -0.895   1.438   0.531  1.00  0.00     0.004 A 
ATOM     10  C   UNL     1      -2.831  -0.517   0.023  1.00  0.00     0.000 A 
ATOM     11  C   UNL     1      -2.172   1.811   0.102  1.00  0.00     0.000 A 
ATOM     12  C   UNL     1      -3.140   0.835  -0.151  1.00  0.00     0.000 A 
ENDBRANCH   6   7
ENDBRANCH   2   6
TORSDOF 3
