REMARK SMILES O=C(O)c1cn(C2CC2)c2cc(N3CCNCC3)c(F)cc2c1=O
REMARK SMILES IDX 4 1 5 2 6 3 10 4 11 5 12 6 19 7 20 8 21 9 22 10 23 11 24 12
REMARK SMILES IDX 2 13 1 14 3 15 7 17 8 18 9 19 13 20 14 21 18 22 15 23 17 24
REMARK SMILES IDX 16 25
REMARK H PARENT 3 16 16 26
REMARK Flexibility Score: inf
ROOT
ATOM      1  C   UNL     1      -3.643  -0.899   1.567  1.00  0.00     0.124 A 
ATOM      2  C   UNL     1      -3.584  -0.142   0.389  1.00  0.00     0.106 A 
ATOM      3  N   UNL     1      -2.393   0.184  -0.199  1.00  0.00    -0.343 N 
ATOM      4  C   UNL     1      -1.201  -0.129   0.420  1.00  0.00     0.054 A 
ATOM      5  C   UNL     1       0.041   0.313  -0.092  1.00  0.00     0.056 A 
ATOM      6  C   UNL     1       1.248  -0.037   0.529  1.00  0.00     0.075 A 
ATOM      7  C   UNL     1       1.226  -0.834   1.680  1.00  0.00     0.147 A 
ATOM      8  F   UNL     1       2.385  -1.216   2.273  1.00  0.00    -0.205 F 
ATOM      9  C   UNL     1       0.012  -1.256   2.219  1.00  0.00     0.055 A 
ATOM     10  C   UNL     1      -1.207  -0.903   1.609  1.00  0.00     0.050 A 
ATOM     11  C   UNL     1      -2.435  -1.296   2.171  1.00  0.00     0.204 A 
ATOM     12  O   UNL     1      -2.450  -1.996   3.222  1.00  0.00    -0.288 OA
ENDROOT
BRANCH   1  13
ATOM     13  C   UNL     1      -4.970  -1.255   2.138  1.00  0.00     0.341 C 
ATOM     14  O   UNL     1      -5.060  -1.910   3.212  1.00  0.00    -0.246 OA
BRANCH  13  15
ATOM     15  O   UNL     1      -6.139  -0.865   1.488  1.00  0.00    -0.477 OA
ATOM     16  H   UNL     1      -7.049  -1.101   1.866  1.00  0.00     0.297 HD
ENDBRANCH  13  15
ENDBRANCH   1  13
BRANCH   3  17
ATOM     17  C   UNL     1      -2.435   0.963  -1.453  1.00  0.00     0.087 C 
ATOM     18  C   UNL     1      -1.847   0.233  -2.657  1.00  0.00     0.027 C 
ATOM     19  C   UNL     1      -3.348   0.398  -2.541  1.00  0.00     0.027 C 
ENDBRANCH   3  17
BRANCH   6  20
ATOM     20  N   UNL     1       2.500   0.408  -0.021  1.00  0.00    -0.367 N 
ATOM     21  C   UNL     1       3.404   1.247   0.775  1.00  0.00     0.132 C 
ATOM     22  C   UNL     1       2.818   0.134  -1.428  1.00  0.00     0.132 C 
ATOM     23  C   UNL     1       4.869   0.785   0.622  1.00  0.00     0.102 C 
ATOM     24  C   UNL     1       4.289   0.441  -1.718  1.00  0.00     0.102 C 
ATOM     25  N   UNL     1       5.108  -0.017  -0.592  1.00  0.00    -0.313 NA
ATOM     26  H   UNL     1       6.115   0.083  -0.859  1.00  0.00     0.122 HD
ENDBRANCH   6  20
TORSDOF 4
