REMARK SMILES CC[C@H]1OC(=O)[C@H](C)[C@@H](O[C@H]2C[C@@](C)(OC)[C@@H](O)[C@H](C)O2)[C@H](C)[C@@H](O[C@@H]2O[C@H](C)C[C@H](N(C)C)[C@H]2O)[C@](C)(O)C[C@@H](C)C(=NOCOCCOC)[C@H](C)[C@@H](O)[C@]1(C)O
REMARK SMILES IDX 41 1 42 2 43 3 44 4 52 5 53 6 54 7 56 8 57 9 3 10 2 11 1 12
REMARK SMILES IDX 4 13 5 14 6 15 58 17 55 19 45 21 46 22 47 23 48 24 49 25
REMARK SMILES IDX 50 26 51 27 40 28 37 29 38 30 24 31 22 32 23 33 9 34 7 35
REMARK SMILES IDX 8 36 10 38 11 39 12 40 21 41 13 42 19 43 14 44 17 45 20 46
REMARK SMILES IDX 15 47 16 48 18 49 25 51 26 52 27 53 35 54 28 55 31 56 29 57
REMARK SMILES IDX 30 58 36 59 32 61 33 62 34 63 39 64
REMARK H PARENT 58 18 55 20 18 50 36 60 39 65
REMARK Flexibility Score: 70.00
ROOT
ATOM      1  C   UNL     1       3.264   0.180  -0.129  1.00  0.00     0.037 C 
ATOM      2  C   UNL     1       2.896  -1.181   0.491  1.00  0.00     0.014 C 
ENDROOT
BRANCH   1   3
ATOM      3  C   UNL     1       4.292  -0.035  -1.256  1.00  0.00     0.066 C 
ATOM      4  N   UNL     1       5.534   0.116  -0.877  1.00  0.00    -0.092 NA
BRANCH   3   5
ATOM      5  C   UNL     1       3.996  -0.577  -2.688  1.00  0.00     0.066 C 
ATOM      6  C   UNL     1       4.607   0.366  -3.752  1.00  0.00     0.017 C 
BRANCH   5   7
ATOM      7  C   UNL     1       2.488  -0.902  -3.037  1.00  0.00     0.158 C 
BRANCH   7   8
ATOM      8  C   UNL     1       2.196  -2.265  -3.761  1.00  0.00     0.125 C 
ATOM      9  C   UNL     1       2.591  -3.465  -2.851  1.00  0.00     0.049 C 
BRANCH   8  10
ATOM     10  C   UNL     1       0.660  -2.319  -4.159  1.00  0.00     0.210 C 
BRANCH  10  11
ATOM     11  C   UNL     1       0.021  -3.712  -4.384  1.00  0.00     0.045 C 
ATOM     12  C   UNL     1       0.529  -4.410  -5.647  1.00  0.00     0.008 C 
ENDBRANCH  10  11
BRANCH  10  13
ATOM     13  O   UNL     1      -0.190  -1.506  -3.326  1.00  0.00    -0.459 OA
BRANCH  13  14
ATOM     14  C   UNL     1      -0.680  -1.807  -2.042  1.00  0.00     0.311 CG0
ATOM     15  O   UNL     1      -0.300  -2.844  -1.439  1.00  0.00    -0.252 OA
ATOM     16  G   UNL     1      -1.787  -0.955  -1.450  1.00  0.00     0.000 G0
ENDBRANCH  13  14
ENDBRANCH  10  13
ENDBRANCH   8  10
BRANCH   8  17
ATOM     17  O   UNL     1       2.934  -2.326  -4.966  1.00  0.00    -0.384 OA
ATOM     18  H   UNL     1       3.889  -2.454  -4.746  1.00  0.00     0.211 HD
ENDBRANCH   8  17
ENDBRANCH   7   8
BRANCH   7  19
ATOM     19  O   UNL     1       1.902   0.141  -3.794  1.00  0.00    -0.389 OA
ATOM     20  H   UNL     1       2.016   0.991  -3.294  1.00  0.00     0.211 HD
ENDBRANCH   7  19
ENDBRANCH   5   7
ENDBRANCH   3   5
BRANCH   4  21
ATOM     21  O   UNL     1       6.634  -0.159  -1.661  1.00  0.00    -0.367 OA
BRANCH  21  22
ATOM     22  C   UNL     1       7.936   0.138  -1.186  1.00  0.00     0.428 C 
BRANCH  22  23
ATOM     23  O   UNL     1       8.201  -0.633  -0.032  1.00  0.00    -0.341 OA
BRANCH  23  24
ATOM     24  C   UNL     1       9.384  -0.173   0.586  1.00  0.00     0.193 C 
BRANCH  24  25
ATOM     25  C   UNL     1       9.737  -1.096   1.751  1.00  0.00     0.188 C 
BRANCH  25  26
ATOM     26  O   UNL     1       8.672  -1.152   2.682  1.00  0.00    -0.382 OA
ATOM     27  C   UNL     1       8.938  -0.303   3.781  1.00  0.00     0.195 C 
ENDBRANCH  25  26
ENDBRANCH  24  25
ENDBRANCH  23  24
ENDBRANCH  22  23
ENDBRANCH  21  22
ENDBRANCH   4  21
ENDBRANCH   1   3
BRANCH   1  28
ATOM     28  C   UNL     1       2.101   1.165  -0.503  1.00  0.00     0.047 C 
BRANCH  28  29
ATOM     29  C   UNL     1       1.218   1.859   0.607  1.00  0.00     0.089 C 
ATOM     30  C   UNL     1       1.886   1.882   1.999  1.00  0.00     0.045 C 
BRANCH  29  31
ATOM     31  C   UNL     1      -0.271   1.280   0.621  1.00  0.00     0.158 C 
BRANCH  31  32
ATOM     32  C   UNL     1      -0.442  -0.274   0.768  1.00  0.00     0.048 C 
ATOM     33  C   UNL     1      -0.378  -0.705   2.258  1.00  0.00     0.013 C 
BRANCH  32  34
ATOM     34  C   UNL     1      -1.768  -0.839   0.118  1.00  0.00     0.141 C 
BRANCH  34  35
ATOM     35  C   UNL     1      -1.787  -0.955  -1.450  1.00  0.00     0.125 CG0
ATOM     36  C   UNL     1      -1.951   0.374  -2.209  1.00  0.00     0.023 C 
ATOM     37  G   UNL     1      -0.680  -1.807  -2.042  1.00  0.00     0.000 G0
ENDBRANCH  34  35
BRANCH  34  38
ATOM     38  O   UNL     1      -1.990  -2.159   0.611  1.00  0.00    -0.348 OA
BRANCH  38  39
ATOM     39  C   UNL     1      -3.173  -2.303   1.383  1.00  0.00     0.253 C 
ATOM     40  C   UNL     1      -4.364  -2.530   0.432  1.00  0.00     0.100 C 
ATOM     41  O   UNL     1      -2.975  -3.431   2.218  1.00  0.00    -0.347 OA
ATOM     42  C   UNL     1      -5.691  -2.865   1.185  1.00  0.00     0.098 C 
ATOM     43  C   UNL     1      -4.087  -3.744   3.042  1.00  0.00     0.150 C 
ATOM     44  C   UNL     1      -6.225  -1.582   1.864  1.00  0.00     0.045 C 
ATOM     45  C   UNL     1      -5.407  -3.960   2.247  1.00  0.00     0.175 C 
ATOM     46  C   UNL     1      -4.193  -2.833   4.282  1.00  0.00     0.041 C 
BRANCH  42  47
ATOM     47  O   UNL     1      -6.779  -3.293   0.356  1.00  0.00    -0.376 OA
ATOM     48  C   UNL     1      -6.438  -3.896  -0.877  1.00  0.00     0.195 C 
ENDBRANCH  42  47
BRANCH  45  49
ATOM     49  O   UNL     1      -5.326  -5.215   1.608  1.00  0.00    -0.387 OA
ATOM     50  H   UNL     1      -5.629  -5.892   2.271  1.00  0.00     0.211 HD
ENDBRANCH  45  49
ENDBRANCH  38  39
ENDBRANCH  34  38
ENDBRANCH  32  34
ENDBRANCH  31  32
BRANCH  31  51
ATOM     51  O   UNL     1      -1.088   1.949   1.586  1.00  0.00    -0.343 OA
BRANCH  51  52
ATOM     52  C   UNL     1      -1.638   3.178   1.110  1.00  0.00     0.280 C 
ATOM     53  O   UNL     1      -0.961   4.249   1.747  1.00  0.00    -0.347 OA
ATOM     54  C   UNL     1      -3.135   3.233   1.461  1.00  0.00     0.188 C 
ATOM     55  C   UNL     1      -1.366   5.493   1.195  1.00  0.00     0.120 C 
ATOM     56  C   UNL     1      -3.706   4.582   0.953  1.00  0.00     0.092 C 
ATOM     57  C   UNL     1      -0.494   6.595   1.784  1.00  0.00     0.039 C 
ATOM     58  C   UNL     1      -2.858   5.760   1.494  1.00  0.00     0.054 C 
BRANCH  54  59
ATOM     59  O   UNL     1      -3.798   2.160   0.839  1.00  0.00    -0.386 OA
ATOM     60  H   UNL     1      -4.669   2.058   1.304  1.00  0.00     0.211 HD
ENDBRANCH  54  59
BRANCH  56  61
ATOM     61  N   UNL     1      -5.168   4.706   1.211  1.00  0.00    -0.304 NA
ATOM     62  C   UNL     1      -5.810   5.670   0.296  1.00  0.00     0.105 C 
ATOM     63  C   UNL     1      -5.516   5.020   2.611  1.00  0.00     0.105 C 
ENDBRANCH  56  61
ENDBRANCH  51  52
ENDBRANCH  31  51
ENDBRANCH  29  31
BRANCH  29  64
ATOM     64  O   UNL     1       1.134   3.224   0.246  1.00  0.00    -0.387 OA
ATOM     65  H   UNL     1       0.713   3.296  -0.643  1.00  0.00     0.211 HD
ENDBRANCH  29  64
ENDBRANCH  28  29
ENDBRANCH   1  28
TORSDOF 18
