REMARK SMILES CC(=O)Oc1ccccc1C(=O)O
REMARK SMILES IDX 5 1 6 2 7 3 8 4 9 5 10 6 4 7 2 8 1 9 3 10 11 11 12 12 13 13
REMARK H PARENT 13 14
REMARK Flexibility Score: inf
ROOT
ATOM      1  C   UNL     1       0.007   0.293   0.110  1.00  0.00     0.145 A 
ATOM      2  C   UNL     1       0.129   1.674  -0.141  1.00  0.00     0.048 A 
ATOM      3  C   UNL     1      -0.996   2.499  -0.132  1.00  0.00     0.004 A 
ATOM      4  C   UNL     1      -2.253   1.963   0.136  1.00  0.00     0.001 A 
ATOM      5  C   UNL     1      -2.390   0.601   0.406  1.00  0.00     0.019 A 
ATOM      6  C   UNL     1      -1.269  -0.251   0.403  1.00  0.00     0.102 A 
ENDROOT
BRANCH   1   7
ATOM      7  O   UNL     1       1.139  -0.539   0.116  1.00  0.00    -0.426 OA
BRANCH   7   8
ATOM      8  C   UNL     1       2.280  -0.361  -0.676  1.00  0.00     0.308 C 
ATOM      9  C   UNL     1       3.505  -1.156  -0.376  1.00  0.00     0.139 C 
ATOM     10  O   UNL     1       2.257   0.384  -1.693  1.00  0.00    -0.252 OA
ENDBRANCH   7   8
ENDBRANCH   1   7
BRANCH   6  11
ATOM     11  C   UNL     1      -1.460  -1.695   0.697  1.00  0.00     0.339 C 
ATOM     12  O   UNL     1      -0.487  -2.496   0.681  1.00  0.00    -0.246 OA
BRANCH  11  13
ATOM     13  O   UNL     1      -2.730  -2.184   0.995  1.00  0.00    -0.478 OA
ATOM     14  H   UNL     1      -2.876  -3.166   1.197  1.00  0.00     0.297 HD
ENDBRANCH  11  13
ENDBRANCH   6  11
TORSDOF 4
