REMARK SMILES CN1CCCN=C1COC(=O)C(O)(c1ccccc1)C1CCCCC1
REMARK SMILES IDX 10 1 11 2 9 3 8 4 7 5 1 6 2 7 3 8 4 9 6 10 5 11 12 12 13 13
REMARK SMILES IDX 20 15 21 16 25 17 22 18 24 19 23 20 14 21 15 22 19 23 16 24
REMARK SMILES IDX 18 25 17 26
REMARK H PARENT 13 14
REMARK Flexibility Score: inf
ROOT
ATOM      1  C   UNL     1       0.359  -1.406   0.345  1.00  0.00     0.343 C 
ATOM      2  O   UNL     1       1.414  -1.771   0.935  1.00  0.00    -0.248 OA
ENDROOT
BRANCH   1   3
ATOM      3  O   UNL     1       0.401  -1.065  -1.012  1.00  0.00    -0.455 OA
BRANCH   3   4
ATOM      4  C   UNL     1       1.607  -0.974  -1.766  1.00  0.00     0.307 C 
BRANCH   4   5
ATOM      5  C   UNL     1       2.337   0.297  -1.416  1.00  0.00     0.137 C 
ATOM      6  C   UNL     1       4.446  -0.924  -0.705  1.00  0.00     0.145 C 
ATOM      7  N   UNL     1       3.629   0.291  -0.755  1.00  0.00    -0.360 N 
ATOM      8  C   UNL     1       4.233   1.549  -0.287  1.00  0.00     0.119 C 
ATOM      9  C   UNL     1       3.184   2.647  -0.105  1.00  0.00     0.045 C 
ATOM     10  N   UNL     1       1.729   1.424  -1.650  1.00  0.00    -0.269 NA
ATOM     11  C   UNL     1       2.314   2.728  -1.355  1.00  0.00     0.146 C 
ENDBRANCH   4   5
ENDBRANCH   3   4
ENDBRANCH   1   3
BRANCH   1  12
ATOM     12  C   UNL     1      -0.954  -1.307   1.120  1.00  0.00     0.190 C 
BRANCH  12  13
ATOM     13  O   UNL     1      -0.708  -1.643   2.469  1.00  0.00    -0.374 OA
ATOM     14  H   UNL     1      -0.463  -2.606   2.509  1.00  0.00     0.212 HD
ENDBRANCH  12  13
BRANCH  12  15
ATOM     15  C   UNL     1      -1.469   0.178   1.103  1.00  0.00     0.037 C 
ATOM     16  C   UNL     1      -2.144   0.600  -0.239  1.00  0.00     0.007 C 
ATOM     17  C   UNL     1      -0.376   1.189   1.529  1.00  0.00     0.007 C 
ATOM     18  C   UNL     1      -1.999   2.098  -0.559  1.00  0.00     0.000 C 
ATOM     19  C   UNL     1      -0.942   2.611   1.701  1.00  0.00     0.000 C 
ATOM     20  C   UNL     1      -2.076   2.947   0.713  1.00  0.00     0.000 C 
ENDBRANCH  12  15
BRANCH  12  21
ATOM     21  C   UNL     1      -2.037  -2.266   0.583  1.00  0.00    -0.005 A 
ATOM     22  C   UNL     1      -1.801  -3.179  -0.472  1.00  0.00     0.007 A 
ATOM     23  C   UNL     1      -3.303  -2.291   1.208  1.00  0.00     0.007 A 
ATOM     24  C   UNL     1      -2.811  -4.039  -0.912  1.00  0.00     0.000 A 
ATOM     25  C   UNL     1      -4.307  -3.155   0.764  1.00  0.00     0.000 A 
ATOM     26  C   UNL     1      -4.064  -4.023  -0.300  1.00  0.00     0.000 A 
ENDBRANCH  12  21
ENDBRANCH   1  12
TORSDOF 7
