REMARK SMILES CN1[C@@H]2CC[C@H]1C[C@@H](OC(=O)[C@H](CO)c1ccccc1)C2
REMARK SMILES IDX 10 1 11 2 9 3 8 4 1 5 2 6 6 7 3 8 5 9 7 10 4 11 21 12 12 13
REMARK SMILES IDX 13 14 14 15 15 17 16 18 20 19 17 20 19 21 18 22
REMARK H PARENT 14 16
REMARK Flexibility Score: inf
ROOT
ATOM      1  C   UNL     1       1.240  -0.021   0.779  1.00  0.00     0.316 C 
ATOM      2  O   UNL     1       1.028   0.842   1.676  1.00  0.00    -0.251 OA
ENDROOT
BRANCH   1   3
ATOM      3  O   UNL     1       0.282  -0.269  -0.210  1.00  0.00    -0.462 OA
BRANCH   3   4
ATOM      4  C   UNL     1      -1.003   0.355  -0.237  1.00  0.00     0.179 C 
ATOM      5  C   UNL     1      -4.993   1.410  -0.494  1.00  0.00     0.105 C 
ATOM      6  N   UNL     1      -3.601   0.933  -0.419  1.00  0.00    -0.300 NA
ATOM      7  C   UNL     1      -3.412  -0.093   0.614  1.00  0.00     0.060 C 
ATOM      8  C   UNL     1      -3.187   0.210  -1.628  1.00  0.00     0.060 C 
ATOM      9  C   UNL     1      -3.910  -1.413   0.004  1.00  0.00     0.021 C 
ATOM     10  C   UNL     1      -1.892  -0.174   0.928  1.00  0.00     0.064 C 
ATOM     11  C   UNL     1      -3.764  -1.209  -1.496  1.00  0.00     0.021 C 
ATOM     12  C   UNL     1      -1.633   0.169  -1.647  1.00  0.00     0.064 C 
ENDBRANCH   3   4
ENDBRANCH   1   3
BRANCH   1  13
ATOM     13  C   UNL     1       2.552  -0.757   0.723  1.00  0.00     0.155 C 
BRANCH  13  14
ATOM     14  C   UNL     1       3.060  -1.151   2.124  1.00  0.00     0.176 C 
BRANCH  14  15
ATOM     15  O   UNL     1       2.132  -1.980   2.772  1.00  0.00    -0.395 OA
ATOM     16  H   UNL     1       2.211  -2.877   2.355  1.00  0.00     0.210 HD
ENDBRANCH  14  15
ENDBRANCH  13  14
BRANCH  13  17
ATOM     17  C   UNL     1       3.585   0.063  -0.025  1.00  0.00    -0.032 A 
ATOM     18  C   UNL     1       3.996   1.324   0.452  1.00  0.00     0.005 A 
ATOM     19  C   UNL     1       4.149  -0.431  -1.216  1.00  0.00     0.005 A 
ATOM     20  C   UNL     1       4.949   2.069  -0.250  1.00  0.00     0.000 A 
ATOM     21  C   UNL     1       5.101   0.319  -1.913  1.00  0.00     0.000 A 
ATOM     22  C   UNL     1       5.501   1.567  -1.430  1.00  0.00     0.000 A 
ENDBRANCH  13  17
ENDBRANCH   1  13
TORSDOF 6
