REMARK SMILES O=P(O)(O)C(O)(Cn1ccnc1)P(=O)(O)O
REMARK SMILES IDX 5 1 6 2 7 4 8 5 9 6 12 7 10 8 11 9 2 10 1 11 3 12 4 14 13 16
REMARK SMILES IDX 14 17 15 18 16 20
REMARK H PARENT 6 3 3 13 4 15 15 19 16 21
REMARK Flexibility Score: inf
ROOT
ATOM      1  C   UNL     1      -0.844  -0.848  -0.230  1.00  0.00     0.285 C 
ENDROOT
BRANCH   1   2
ATOM      2  O   UNL     1      -1.644  -1.914  -0.678  1.00  0.00    -0.366 OA
ATOM      3  H   UNL     1      -2.568  -1.769  -0.347  1.00  0.00     0.213 HD
ENDBRANCH   1   2
BRANCH   1   4
ATOM      4  C   UNL     1       0.572  -1.083  -0.810  1.00  0.00     0.185 C 
BRANCH   4   5
ATOM      5  N   UNL     1       1.546  -0.049  -0.448  1.00  0.00    -0.333 N 
ATOM      6  C   UNL     1       2.391  -0.063   0.596  1.00  0.00     0.107 A 
ATOM      7  C   UNL     1       1.876   1.042  -1.168  1.00  0.00     0.199 A 
ATOM      8  C   UNL     1       3.198   1.048   0.503  1.00  0.00     0.130 A 
ATOM      9  N   UNL     1       2.881   1.746  -0.607  1.00  0.00    -0.245 NA
ENDBRANCH   4   5
ENDBRANCH   1   4
BRANCH   1  10
ATOM     10  P   UNL     1      -1.560   0.733  -0.842  1.00  0.00     0.371 P 
ATOM     11  O   UNL     1      -3.015   0.821  -0.438  1.00  0.00    -0.256 OA
BRANCH  10  12
ATOM     12  O   UNL     1      -1.451   0.787  -2.530  1.00  0.00    -0.322 OA
ATOM     13  H   UNL     1      -1.954  -0.006  -2.844  1.00  0.00     0.221 HD
ENDBRANCH  10  12
BRANCH  10  14
ATOM     14  O   UNL     1      -0.735   2.059  -0.190  1.00  0.00    -0.322 OA
ATOM     15  H   UNL     1      -1.102   2.845  -0.668  1.00  0.00     0.221 HD
ENDBRANCH  10  14
ENDBRANCH   1  10
BRANCH   1  16
ATOM     16  P   UNL     1      -0.826  -0.855   1.610  1.00  0.00     0.371 P 
ATOM     17  O   UNL     1      -0.104  -2.090   2.102  1.00  0.00    -0.256 OA
BRANCH  16  18
ATOM     18  O   UNL     1      -0.039   0.517   2.213  1.00  0.00    -0.322 OA
ATOM     19  H   UNL     1      -0.762   1.168   2.395  1.00  0.00     0.221 HD
ENDBRANCH  16  18
BRANCH  16  20
ATOM     20  O   UNL     1      -2.415  -0.872   2.198  1.00  0.00    -0.322 OA
ATOM     21  H   UNL     1      -2.712  -1.813   2.114  1.00  0.00     0.221 HD
ENDBRANCH  16  20
ENDBRANCH   1  16
TORSDOF 9
