REMARK SMILES CN(C/C=C/C#CC(C)(C)C)Cc1cccc2ccccc12
REMARK SMILES IDX 3 1 2 2 1 3 12 4 13 5 14 6 22 7 15 8 17 9 21 10 16 11 18 12
REMARK SMILES IDX 20 13 19 14 4 15 5 16 6 17 7 18 8 19 9 20 10 21 11 22
REMARK H PARENT
REMARK Flexibility Score: inf
ROOT
ATOM      1  C   UNL     1      -0.199  -3.077  -0.156  1.00  0.00     0.112 C 
ENDROOT
BRANCH   1   2
ATOM      2  N   UNL     1      -1.513  -2.404  -0.089  1.00  0.00    -0.298 NA
ATOM      3  C   UNL     1      -2.585  -3.370  -0.389  1.00  0.00     0.106 C 
BRANCH   2   4
ATOM      4  C   UNL     1      -1.724  -1.795   1.244  1.00  0.00     0.120 C 
BRANCH   4   5
ATOM      5  C   UNL     1      -2.837  -0.766   1.199  1.00  0.00    -0.026 A 
ATOM      6  C   UNL     1      -4.061  -1.081   1.816  1.00  0.00     0.006 A 
ATOM      7  C   UNL     1      -2.694   0.487   0.542  1.00  0.00    -0.014 A 
ATOM      8  C   UNL     1      -5.126  -0.182   1.793  1.00  0.00     0.001 A 
ATOM      9  C   UNL     1      -3.790   1.394   0.528  1.00  0.00    -0.018 A 
ATOM     10  C   UNL     1      -1.495   0.869  -0.098  1.00  0.00     0.009 A 
ATOM     11  C   UNL     1      -4.994   1.048   1.155  1.00  0.00     0.009 A 
ATOM     12  C   UNL     1      -3.666   2.636  -0.114  1.00  0.00     0.009 A 
ATOM     13  C   UNL     1      -1.390   2.110  -0.731  1.00  0.00     0.001 A 
ATOM     14  C   UNL     1      -2.471   2.990  -0.740  1.00  0.00     0.001 A 
ENDBRANCH   4   5
ENDBRANCH   2   4
ENDBRANCH   1   2
BRANCH   1  15
ATOM     15  C   UNL     1       0.877  -2.071  -0.442  1.00  0.00    -0.003 C 
ATOM     16  C   UNL     1       1.766  -1.706   0.483  1.00  0.00     0.057 C 
BRANCH  16  17
ATOM     17  C   UNL     1       2.718  -0.667   0.205  1.00  0.00    -0.075 C 
ATOM     18  C   UNL     1       3.506   0.214  -0.031  1.00  0.00    -0.093 C 
BRANCH  18  19
ATOM     19  C   UNL     1       4.461   1.298  -0.325  1.00  0.00     0.023 C 
ATOM     20  C   UNL     1       3.765   2.354  -1.199  1.00  0.00     0.025 C 
ATOM     21  C   UNL     1       5.671   0.713  -1.073  1.00  0.00     0.025 C 
ATOM     22  C   UNL     1       4.920   1.934   0.998  1.00  0.00     0.025 C 
ENDBRANCH  18  19
ENDBRANCH  16  17
ENDBRANCH   1  15
TORSDOF 6
