REMARK SMILES CCCCC(C)(O)C/C=C/[C@H]1[C@H](O)CC(=O)[C@@H]1CCCCCCC(=O)OC
REMARK SMILES IDX 18 1 17 2 11 3 12 4 14 5 15 6 16 7 10 8 9 9 8 10 5 11 6 12
REMARK SMILES IDX 4 13 3 14 2 15 1 16 7 17 13 19 19 21 20 22 21 23 22 24 23 25
REMARK SMILES IDX 24 26 25 27 26 28 27 29
REMARK H PARENT 7 18 13 20
REMARK Flexibility Score: inf
ROOT
ATOM      1  C   UNL     1      -2.223  -0.547  -1.334  1.00  0.00     0.012 C 
ENDROOT
BRANCH   1   2
ATOM      2  C   UNL     1      -0.847  -1.004  -0.788  1.00  0.00     0.065 C 
ATOM      3  C   UNL     1       0.247  -0.945  -1.885  1.00  0.00     0.051 C 
ATOM      4  C   UNL     1       0.542  -2.405  -2.322  1.00  0.00     0.129 C 
ATOM      5  C   UNL     1      -0.012  -3.326  -1.230  1.00  0.00     0.108 C 
ATOM      6  C   UNL     1      -0.855  -2.444  -0.388  1.00  0.00     0.139 C 
ATOM      7  O   UNL     1      -1.447  -2.860   0.595  1.00  0.00    -0.299 OA
BRANCH   3   8
ATOM      8  C   UNL     1       1.502  -0.245  -1.398  1.00  0.00    -0.024 C 
ATOM      9  C   UNL     1       2.197  -0.663  -0.326  1.00  0.00    -0.028 C 
BRANCH   9  10
ATOM     10  C   UNL     1       3.466   0.022   0.115  1.00  0.00     0.062 C 
BRANCH  10  11
ATOM     11  C   UNL     1       4.730  -0.813  -0.215  1.00  0.00     0.065 C 
ATOM     12  C   UNL     1       4.919  -0.909  -1.748  1.00  0.00     0.042 C 
BRANCH  11  13
ATOM     13  C   UNL     1       5.987  -0.195   0.467  1.00  0.00     0.035 C 
BRANCH  13  14
ATOM     14  C   UNL     1       6.304   1.262   0.067  1.00  0.00     0.003 C 
BRANCH  14  15
ATOM     15  C   UNL     1       7.631   1.758   0.663  1.00  0.00    -0.003 C 
ATOM     16  C   UNL     1       7.559   1.970   2.175  1.00  0.00     0.004 C 
ENDBRANCH  14  15
ENDBRANCH  13  14
ENDBRANCH  11  13
BRANCH  11  17
ATOM     17  O   UNL     1       4.541  -2.110   0.306  1.00  0.00    -0.390 OA
ATOM     18  H   UNL     1       5.329  -2.661   0.059  1.00  0.00     0.211 HD
ENDBRANCH  11  17
ENDBRANCH  10  11
ENDBRANCH   9  10
ENDBRANCH   3   8
BRANCH   4  19
ATOM     19  O   UNL     1      -0.053  -2.689  -3.566  1.00  0.00    -0.392 OA
ATOM     20  H   UNL     1      -1.032  -2.551  -3.474  1.00  0.00     0.210 HD
ENDBRANCH   4  19
ENDBRANCH   1   2
BRANCH   1  21
ATOM     21  C   UNL     1      -3.319  -0.396  -0.262  1.00  0.00     0.001 C 
BRANCH  21  22
ATOM     22  C   UNL     1      -3.133   0.860   0.607  1.00  0.00     0.000 C 
BRANCH  22  23
ATOM     23  C   UNL     1      -4.211   0.986   1.696  1.00  0.00     0.001 C 
BRANCH  23  24
ATOM     24  C   UNL     1      -5.570   1.437   1.139  1.00  0.00     0.012 C 
BRANCH  24  25
ATOM     25  C   UNL     1      -6.602   1.578   2.262  1.00  0.00     0.123 C 
BRANCH  25  26
ATOM     26  C   UNL     1      -7.917   2.033   1.713  1.00  0.00     0.305 C 
ATOM     27  O   UNL     1      -8.308   3.215   1.916  1.00  0.00    -0.252 OA
BRANCH  26  28
ATOM     28  O   UNL     1      -8.690   1.145   0.958  1.00  0.00    -0.469 OA
ATOM     29  C   UNL     1      -9.956   1.502   0.416  1.00  0.00     0.282 C 
ENDBRANCH  26  28
ENDBRANCH  25  26
ENDBRANCH  24  25
ENDBRANCH  23  24
ENDBRANCH  22  23
ENDBRANCH  21  22
ENDBRANCH   1  21
TORSDOF 16
