REMARK SMILES O=c1[nH]cc(F)c(=O)[nH]1
REMARK SMILES IDX 6 1 5 2 4 3 3 4 2 5 1 6 9 7 7 8 8 9
REMARK H PARENT 3 10 9 11
REMARK Flexibility Score: inf
ROOT
ATOM      1  F   UNL     1       1.147   2.079   1.344  1.00  0.00    -0.199 F 
ATOM      2  C   UNL     1       0.575   1.046   0.676  1.00  0.00     0.204 A 
ATOM      3  C   UNL     1      -0.813   0.931   0.609  1.00  0.00     0.132 A 
ATOM      4  N   UNL     1      -1.377  -0.108  -0.062  1.00  0.00    -0.311 N 
ATOM      5  C   UNL     1      -0.601  -1.044  -0.675  1.00  0.00     0.325 A 
ATOM      6  O   UNL     1      -1.141  -2.001  -1.294  1.00  0.00    -0.248 OA
ATOM      7  N   UNL     1       0.756  -0.949  -0.621  1.00  0.00    -0.272 N 
ATOM      8  C   UNL     1       1.356   0.078   0.043  1.00  0.00     0.289 A 
ATOM      9  O   UNL     1       2.613   0.154   0.085  1.00  0.00    -0.266 OA
ATOM     10  H   UNL     1      -2.418  -0.183  -0.105  1.00  0.00     0.171 HD
ATOM     11  H   UNL     1       1.345  -1.672  -1.094  1.00  0.00     0.175 HD
ENDROOT
TORSDOF 0
