REMARK SMILES CCC1(C)OC(=O)N(C)C1=O
REMARK SMILES IDX 3 1 4 2 5 3 6 4 7 5 8 6 9 7 10 8 11 9 2 10 1 11
REMARK H PARENT
REMARK Flexibility Score: inf
ROOT
ATOM      1  C   UNL     1      -0.474   0.287  -0.146  1.00  0.00     0.189 C 
ATOM      2  C   UNL     1      -1.127   1.294  -1.103  1.00  0.00     0.068 C 
ATOM      3  O   UNL     1      -0.327  -0.980  -0.791  1.00  0.00    -0.433 OA
ATOM      4  C   UNL     1       1.018  -1.301  -0.905  1.00  0.00     0.417 C 
ATOM      5  O   UNL     1       1.432  -2.388  -1.386  1.00  0.00    -0.224 OA
ATOM      6  N   UNL     1       1.873  -0.291  -0.399  1.00  0.00    -0.247 N 
ATOM      7  C   UNL     1       3.248  -0.481   0.044  1.00  0.00     0.160 C 
ATOM      8  C   UNL     1       0.960   0.670   0.116  1.00  0.00     0.275 C 
ATOM      9  O   UNL     1       1.324   1.706   0.735  1.00  0.00    -0.270 OA
ENDROOT
BRANCH   1  10
ATOM     10  C   UNL     1      -1.242   0.131   1.185  1.00  0.00     0.055 C 
ATOM     11  C   UNL     1      -2.643  -0.458   1.009  1.00  0.00     0.009 C 
ENDBRANCH   1  10
TORSDOF 1
