REMARK SMILES O=C1CN=C(c2ccccc2)c2cc(Cl)ccc2N1CC(F)(F)F
REMARK SMILES IDX 18 1 12 2 13 3 14 4 15 5 16 6 17 7 19 8 20 9 21 10 22 11
REMARK SMILES IDX 23 12 24 13 2 14 1 15 5 17 4 18 6 19 7 20 11 21 8 22 10 23
REMARK SMILES IDX 9 24 3 25
REMARK H PARENT
REMARK Flexibility Score: 90.00
ROOT
ATOM      1  C   UNL     1      -1.306  -0.639  -0.349  1.00  0.00     0.054 A 
ATOM      2  C   UNL     1       0.090  -0.868  -0.181  1.00  0.00     0.026 A 
ATOM      3  C   UNL     1       0.724  -1.855  -0.960  1.00  0.00     0.033 A 
ATOM      4  C   UNL     1       0.011  -2.589  -1.907  1.00  0.00     0.041 A 
ATOM      5  Cl  UNL     1       0.826  -3.808  -2.870  1.00  0.00    -0.084 Cl
ATOM      6  C   UNL     1      -1.349  -2.351  -2.089  1.00  0.00     0.023 A 
ATOM      7  C   UNL     1      -2.000  -1.388  -1.321  1.00  0.00     0.028 A 
ENDROOT
BRANCH   1   8
ATOM      8  N   UNL     1      -2.023   0.355   0.428  1.00  0.00    -0.301 N 
BRANCH   8   9
ATOM      9  C   UNL     1      -2.946   1.282  -0.254  1.00  0.00     0.241 C 
BRANCH   9  10
ATOM     10  C   UNL     1      -4.421   0.977   0.057  1.00  0.00     0.406 C 
ATOM     11  F   UNL     1      -4.634  -0.383   0.187  1.00  0.00    -0.169 F 
ATOM     12  F   UNL     1      -5.215   1.456  -0.969  1.00  0.00    -0.169 F 
ATOM     13  F   UNL     1      -4.805   1.601   1.230  1.00  0.00    -0.169 F 
ENDBRANCH   9  10
ENDBRANCH   8   9
BRANCH   8  14
ATOM     14  C   UNL     1      -1.826   0.465   1.854  1.00  0.00     0.248 CG0
ATOM     15  O   UNL     1      -2.496   1.291   2.532  1.00  0.00    -0.272 OA
ATOM     16  G   UNL     1      -0.767  -0.334   2.540  1.00  0.00     0.000 G0
ENDBRANCH   8  14
ENDBRANCH   1   8
BRANCH   2  17
ATOM     17  C   UNL     1       0.925  -0.105   0.795  1.00  0.00     0.075 C 
ATOM     18  N   UNL     1       0.526   0.082   2.021  1.00  0.00    -0.274 NA
BRANCH  17  19
ATOM     19  C   UNL     1       2.262   0.411   0.401  1.00  0.00     0.000 A 
ATOM     20  C   UNL     1       3.286   0.544   1.358  1.00  0.00     0.010 A 
ATOM     21  C   UNL     1       2.519   0.803  -0.927  1.00  0.00     0.010 A 
ATOM     22  C   UNL     1       4.541   1.039   0.989  1.00  0.00     0.001 A 
ATOM     23  C   UNL     1       3.775   1.297  -1.290  1.00  0.00     0.001 A 
ATOM     24  C   UNL     1       4.786   1.413  -0.334  1.00  0.00     0.000 A 
ENDBRANCH  17  19
BRANCH  18  25
ATOM     25  C   UNL     1      -0.767  -0.334   2.540  1.00  0.00     0.243 CG0
ATOM     26  G   UNL     1      -1.826   0.465   1.854  1.00  0.00     0.000 G0
ENDBRANCH  18  25
ENDBRANCH   2  17
TORSDOF 3
