REMARK SMILES CC1(C)O[C@@H]2[C@@H](CO[C@@]3(COS(N)(=O)=O)OC(C)(C)O[C@@H]23)O1
REMARK SMILES IDX 11 1 10 2 9 3 6 4 7 5 5 6 22 7 8 8 21 9 4 10 2 11 20 12 1 13
REMARK SMILES IDX 3 14 16 15 17 16 18 17 19 18 12 19 14 20 15 21 13 22
REMARK H PARENT 13 23 13 24
REMARK Flexibility Score: inf
ROOT
ATOM      1  O   UNL     1       1.357   1.893  -0.689  1.00  0.00    -0.252 OA
ENDROOT
BRANCH   1   2
ATOM      2  C   UNL     1       1.953   0.657  -0.368  1.00  0.00     0.253 C 
BRANCH   2   3
ATOM      3  C   UNL     1       0.967  -0.194   0.458  1.00  0.00     0.226 C 
ATOM      4  C   UNL     1      -1.714  -0.133   1.620  1.00  0.00     0.179 C 
ATOM      5  C   UNL     1      -0.388  -0.066   2.360  1.00  0.00     0.199 C 
ATOM      6  C   UNL     1      -1.595  -0.780   0.265  1.00  0.00     0.187 C 
ATOM      7  O   UNL     1      -2.216   1.145   1.389  1.00  0.00    -0.342 OA
ATOM      8  O   UNL     1       0.572   0.594   1.571  1.00  0.00    -0.343 OA
ATOM      9  C   UNL     1      -0.195  -0.682  -0.417  1.00  0.00     0.215 C 
ATOM     10  O   UNL     1      -2.543  -0.132  -0.531  1.00  0.00    -0.342 OA
ATOM     11  C   UNL     1      -2.874   1.066   0.143  1.00  0.00     0.164 C 
ATOM     12  O   UNL     1       0.189  -1.954  -0.848  1.00  0.00    -0.339 OA
ATOM     13  C   UNL     1      -2.445   2.258  -0.719  1.00  0.00     0.075 C 
ATOM     14  C   UNL     1      -4.388   1.105   0.372  1.00  0.00     0.075 C 
ATOM     15  O   UNL     1       1.637  -1.348   0.882  1.00  0.00    -0.314 OA
ATOM     16  C   UNL     1       1.189  -2.398   0.048  1.00  0.00     0.167 C 
ATOM     17  C   UNL     1       0.621  -3.525   0.922  1.00  0.00     0.075 C 
ATOM     18  C   UNL     1       2.375  -2.937  -0.760  1.00  0.00     0.075 C 
ENDBRANCH   2   3
ENDBRANCH   1   2
BRANCH   1  19
ATOM     19  S   UNL     1       2.366   2.723  -1.768  1.00  0.00     0.333 S 
ATOM     20  O   UNL     1       1.791   4.091  -2.001  1.00  0.00    -0.182 OA
ATOM     21  O   UNL     1       2.427   1.992  -3.081  1.00  0.00    -0.182 OA
BRANCH  19  22
ATOM     22  N   UNL     1       3.960   2.891  -1.113  1.00  0.00    -0.205 NA
ATOM     23  H   UNL     1       4.453   1.983  -1.262  1.00  0.00     0.139 HD
ATOM     24  H   UNL     1       4.458   3.597  -1.701  1.00  0.00     0.139 HD
ENDBRANCH  19  22
ENDBRANCH   1  19
TORSDOF 4
