REMARK SMILES Cc1ccc(N(CC2=NCCN2)c2cccc(O)c2)cc1
REMARK SMILES IDX 6 1 5 2 1 3 2 4 3 5 21 6 4 7 20 8 7 9 8 10 9 11 12 12 10 13
REMARK SMILES IDX 11 14 13 16 19 17 14 18 17 19 15 20 16 21 18 22
REMARK H PARENT 12 15 18 23
REMARK Flexibility Score: inf
ROOT
ATOM      1  N   UNL     1      -0.749  -0.448   0.486  1.00  0.00    -0.334 N 
ENDROOT
BRANCH   1   2
ATOM      2  C   UNL     1       0.690  -0.321   0.581  1.00  0.00     0.042 A 
ATOM      3  C   UNL     1       4.986   0.073   0.816  1.00  0.00     0.044 C 
ATOM      4  C   UNL     1       3.493  -0.035   0.723  1.00  0.00    -0.051 A 
ATOM      5  C   UNL     1       2.690   0.304   1.821  1.00  0.00     0.005 A 
ATOM      6  C   UNL     1       2.891  -0.540  -0.438  1.00  0.00     0.005 A 
ATOM      7  C   UNL     1       1.300   0.170   1.749  1.00  0.00     0.026 A 
ATOM      8  C   UNL     1       1.502  -0.675  -0.512  1.00  0.00     0.026 A 
ENDBRANCH   1   2
BRANCH   1   9
ATOM      9  C   UNL     1      -1.635   0.549   1.111  1.00  0.00     0.197 C 
BRANCH   9  10
ATOM     10  C   UNL     1      -1.302   1.929   0.632  1.00  0.00     0.117 C 
ATOM     11  N   UNL     1      -1.111   2.917   1.435  1.00  0.00    -0.269 NA
ATOM     12  N   UNL     1      -1.181   2.270  -0.734  1.00  0.00    -0.370 N 
ATOM     13  C   UNL     1      -0.808   4.119   0.668  1.00  0.00     0.165 C 
ATOM     14  C   UNL     1      -0.848   3.678  -0.804  1.00  0.00     0.138 C 
ATOM     15  H   UNL     1      -1.279   1.621  -1.545  1.00  0.00     0.161 HD
ENDBRANCH   9  10
ENDBRANCH   1   9
BRANCH   1  16
ATOM     16  C   UNL     1      -1.324  -1.597  -0.172  1.00  0.00     0.045 A 
ATOM     17  C   UNL     1      -2.340  -1.440  -1.131  1.00  0.00     0.072 A 
ATOM     18  C   UNL     1      -0.859  -2.889   0.128  1.00  0.00     0.026 A 
ATOM     19  C   UNL     1      -2.887  -2.559  -1.775  1.00  0.00     0.117 A 
ATOM     20  C   UNL     1      -1.406  -4.003  -0.515  1.00  0.00     0.006 A 
ATOM     21  C   UNL     1      -2.418  -3.838  -1.463  1.00  0.00     0.046 A 
BRANCH  19  22
ATOM     22  O   UNL     1      -3.893  -2.409  -2.727  1.00  0.00    -0.508 OA
ATOM     23  H   UNL     1      -4.255  -1.495  -2.976  1.00  0.00     0.293 HD
ENDBRANCH  19  22
ENDBRANCH   1  16
TORSDOF 5
