REMARK SMILES COC(=O)[C@@H]1CC2=CC(=O)CC[C@]2(C)[C@@]23O[C@@H]2C[C@@]2(C)[C@@H](CC[C@@]24CCC(=O)O4)[C@H]13
REMARK SMILES IDX 3 1 4 2 5 3 21 4 22 5 19 6 30 7 23 8 24 9 20 10 18 11 15 12
REMARK SMILES IDX 25 13 29 14 17 15 16 16 13 17 6 18 26 19 27 20 7 21 12 22
REMARK SMILES IDX 14 23 28 24 8 25 11 26 9 27 10 28 2 29 1 30
REMARK H PARENT
REMARK Flexibility Score: inf
ROOT
ATOM      1  C   UNL     1      -0.845   1.373   2.480  1.00  0.00     0.309 C 
ATOM      2  O   UNL     1      -0.300   0.535   3.252  1.00  0.00    -0.252 OA
ENDROOT
BRANCH   1   3
ATOM      3  C   UNL     1      -1.519   0.913   1.214  1.00  0.00     0.109 C 
ATOM      4  C   UNL     1       0.990   0.493   0.353  1.00  0.00     0.006 C 
ATOM      5  C   UNL     1       1.634   1.841   0.713  1.00  0.00     0.009 C 
ATOM      6  C   UNL     1       1.823  -0.026  -0.839  1.00  0.00     0.013 C 
ATOM      7  C   UNL     1      -0.539   0.510   0.044  1.00  0.00     0.043 C 
ATOM      8  C   UNL     1       3.082   1.775   0.210  1.00  0.00     0.050 C 
ATOM      9  C   UNL     1       3.273   0.374  -0.417  1.00  0.00     0.118 C 
ATOM     10  C   UNL     1       1.478   0.699  -2.185  1.00  0.00     0.016 C 
ATOM     11  C   UNL     1       1.523  -1.532  -1.020  1.00  0.00     0.046 C 
ATOM     12  C   UNL     1      -1.002  -0.819  -0.637  1.00  0.00     0.108 C 
ATOM     13  C   UNL     1       4.018  -0.557   0.595  1.00  0.00     0.061 C 
ATOM     14  O   UNL     1       4.167   0.464  -1.519  1.00  0.00    -0.458 OA
ATOM     15  C   UNL     1       0.013  -1.797  -1.185  1.00  0.00     0.153 C 
ATOM     16  O   UNL     1      -0.569  -1.945   0.094  1.00  0.00    -0.365 OA
ATOM     17  C   UNL     1      -2.529  -0.932  -0.956  1.00  0.00     0.021 C 
ATOM     18  C   UNL     1      -2.576  -0.161   1.567  1.00  0.00     0.047 C 
ATOM     19  C   UNL     1       5.503  -0.428   0.235  1.00  0.00     0.127 C 
ATOM     20  C   UNL     1       5.434   0.062  -1.157  1.00  0.00     0.306 C 
ATOM     21  C   UNL     1      -3.290  -0.721   0.352  1.00  0.00    -0.057 C 
ATOM     22  C   UNL     1      -2.923  -2.314  -1.566  1.00  0.00     0.022 C 
ATOM     23  C   UNL     1      -2.912   0.189  -1.952  1.00  0.00     0.019 C 
ATOM     24  O   UNL     1       6.421   0.124  -1.936  1.00  0.00    -0.252 OA
ATOM     25  C   UNL     1      -4.544  -1.183   0.499  1.00  0.00     0.047 C 
ATOM     26  C   UNL     1      -4.442  -2.483  -1.741  1.00  0.00     0.081 C 
ATOM     27  C   UNL     1      -5.199  -1.996  -0.539  1.00  0.00     0.155 C 
ATOM     28  O   UNL     1      -6.416  -2.294  -0.413  1.00  0.00    -0.295 OA
ENDBRANCH   1   3
BRANCH   1  29
ATOM     29  O   UNL     1      -0.833   2.736   2.794  1.00  0.00    -0.469 OA
ATOM     30  C   UNL     1      -0.243   3.243   3.984  1.00  0.00     0.282 C 
ENDBRANCH   1  29
TORSDOF 2
