REMARK SMILES CCCN(CCC)CCc1cccc2c1CC(=O)N2
REMARK SMILES IDX 8 1 4 2 3 3 2 4 1 5 5 6 6 7 7 8 9 9 10 10 15 11 11 12 16 13
REMARK SMILES IDX 14 14 12 15 17 16 19 17 13 18 18 19
REMARK H PARENT 19 20
REMARK Flexibility Score: inf
ROOT
ATOM      1  C   UNL     1      -0.263  -0.118   0.968  1.00  0.00     0.089 C 
ENDROOT
BRANCH   1   2
ATOM      2  N   UNL     1      -1.699  -0.211   0.622  1.00  0.00    -0.303 NA
BRANCH   2   3
ATOM      3  C   UNL     1      -2.216  -1.587   0.809  1.00  0.00     0.084 C 
BRANCH   3   4
ATOM      4  C   UNL     1      -1.925  -2.459  -0.422  1.00  0.00     0.012 C 
ATOM      5  C   UNL     1      -2.577  -1.902  -1.686  1.00  0.00     0.005 C 
ENDBRANCH   3   4
ENDBRANCH   2   3
BRANCH   2   6
ATOM      6  C   UNL     1      -2.502   0.773   1.386  1.00  0.00     0.084 C 
BRANCH   6   7
ATOM      7  C   UNL     1      -3.688   1.269   0.549  1.00  0.00     0.012 C 
ATOM      8  C   UNL     1      -3.228   2.080  -0.662  1.00  0.00     0.005 C 
ENDBRANCH   6   7
ENDBRANCH   2   6
ENDBRANCH   1   2
BRANCH   1   9
ATOM      9  C   UNL     1       0.417   0.933   0.085  1.00  0.00     0.051 C 
BRANCH   9  10
ATOM     10  C   UNL     1       1.902   0.959   0.336  1.00  0.00    -0.041 A 
ATOM     11  C   UNL     1       2.783   0.133  -0.382  1.00  0.00    -0.012 A 
ATOM     12  C   UNL     1       2.441   1.776   1.352  1.00  0.00     0.004 A 
ATOM     13  C   UNL     1       2.474  -0.840  -1.481  1.00  0.00     0.138 C 
ATOM     14  C   UNL     1       4.138   0.136  -0.112  1.00  0.00     0.045 A 
ATOM     15  C   UNL     1       3.824   1.772   1.616  1.00  0.00     0.002 A 
ATOM     16  C   UNL     1       3.851  -1.360  -1.762  1.00  0.00     0.228 C 
ATOM     17  N   UNL     1       4.847  -0.768  -0.937  1.00  0.00    -0.326 N 
ATOM     18  C   UNL     1       4.686   0.946   0.880  1.00  0.00     0.026 A 
ATOM     19  O   UNL     1       4.114  -2.230  -2.634  1.00  0.00    -0.274 OA
ATOM     20  H   UNL     1       5.873  -0.964  -0.936  1.00  0.00     0.169 HD
ENDBRANCH   9  10
ENDBRANCH   1   9
TORSDOF 7
