REMARK SMILES Cc1ccc(-c2nc3ccc(C)cn3c2CC(=O)N(C)C)cc1
REMARK SMILES IDX 15 1 6 2 7 3 8 4 9 5 10 6 11 7 12 8 13 9 14 10 16 11 17 12
REMARK SMILES IDX 20 13 19 14 21 15 18 16 5 17 4 18 22 19 3 20 23 21 2 22 1 23
REMARK H PARENT
REMARK Flexibility Score: inf
ROOT
ATOM      1  C   UNL     1      -0.550   0.919  -0.723  1.00  0.00     0.060 A 
ATOM      2  C   UNL     1       0.828   0.832  -0.535  1.00  0.00     0.093 A 
ATOM      3  N   UNL     1       1.381   2.067  -0.557  1.00  0.00    -0.228 NA
ATOM      4  C   UNL     1       0.328   2.880  -0.772  1.00  0.00     0.137 A 
ATOM      5  C   UNL     1       0.388   4.267  -0.869  1.00  0.00     0.048 A 
ATOM      6  C   UNL     1      -0.814   4.963  -1.064  1.00  0.00     0.009 A 
ATOM      7  C   UNL     1      -2.039   4.266  -1.140  1.00  0.00    -0.034 A 
ATOM      8  C   UNL     1      -3.318   5.011  -1.381  1.00  0.00     0.046 C 
ATOM      9  C   UNL     1      -2.035   2.862  -1.046  1.00  0.00     0.096 A 
ATOM     10  N   UNL     1      -0.845   2.226  -0.867  1.00  0.00    -0.303 N 
ENDROOT
BRANCH   1  11
ATOM     11  C   UNL     1      -1.552  -0.199  -0.572  1.00  0.00     0.157 C 
BRANCH  11  12
ATOM     12  C   UNL     1      -1.574  -0.682   0.854  1.00  0.00     0.228 C 
ATOM     13  C   UNL     1      -0.763  -2.337   2.549  1.00  0.00     0.146 C 
ATOM     14  N   UNL     1      -1.268  -2.048   1.204  1.00  0.00    -0.348 N 
ATOM     15  C   UNL     1      -1.519  -3.144   0.262  1.00  0.00     0.146 C 
ATOM     16  O   UNL     1      -1.847   0.147   1.765  1.00  0.00    -0.274 OA
ENDBRANCH  11  12
ENDBRANCH   1  11
BRANCH   2  17
ATOM     17  C   UNL     1       1.601  -0.387  -0.240  1.00  0.00     0.002 A 
ATOM     18  C   UNL     1       1.515  -1.510  -1.075  1.00  0.00     0.011 A 
ATOM     19  C   UNL     1       2.438  -0.427   0.884  1.00  0.00     0.011 A 
ATOM     20  C   UNL     1       2.233  -2.671  -0.773  1.00  0.00     0.004 A 
ATOM     21  C   UNL     1       3.152  -1.589   1.190  1.00  0.00     0.004 A 
ATOM     22  C   UNL     1       3.062  -2.715   0.357  1.00  0.00    -0.051 A 
ATOM     23  C   UNL     1       3.792  -3.977   0.707  1.00  0.00     0.044 C 
ENDBRANCH   2  17
TORSDOF 3
