REMARK SMILES CCN(CC)C(=O)N[C@H]1C=C2c3cccc4[nH]cc(c34)C[C@H]2N(C)C1
REMARK SMILES IDX 8 1 6 2 7 3 3 4 9 6 22 7 21 8 11 9 23 10 19 11 12 12 10 13
REMARK SMILES IDX 25 14 24 15 18 16 20 17 13 18 17 19 16 20 14 21 15 23 2 24
REMARK SMILES IDX 1 25 4 26 5 27
REMARK H PARENT 8 5 17 22
REMARK Flexibility Score: inf
ROOT
ATOM      1  N   UNL     1       1.919   0.172   1.311  1.00  0.00    -0.330 N 
ATOM      2  C   UNL     1       2.525  -0.131   0.039  1.00  0.00     0.317 C 
ATOM      3  O   UNL     1       1.789  -0.457  -0.931  1.00  0.00    -0.249 OA
ATOM      4  N   UNL     1       3.960  -0.074  -0.152  1.00  0.00    -0.325 N 
ATOM      5  H   UNL     1       2.499   0.557   2.087  1.00  0.00     0.166 HD
ENDROOT
BRANCH   1   6
ATOM      6  C   UNL     1       0.496  -0.034   1.609  1.00  0.00     0.121 C 
ATOM      7  C   UNL     1      -2.098  -0.989   0.921  1.00  0.00     0.091 C 
ATOM      8  C   UNL     1      -3.413  -1.549   0.274  1.00  0.00     0.061 C 
ATOM      9  C   UNL     1      -1.626   0.371   0.380  1.00  0.00    -0.024 C 
ATOM     10  N   UNL     1      -0.996  -1.983   0.874  1.00  0.00    -0.297 NA
ATOM     11  C   UNL     1      -4.345  -0.443  -0.102  1.00  0.00    -0.020 A 
ATOM     12  C   UNL     1      -2.609   1.274  -0.291  1.00  0.00    -0.011 A 
ATOM     13  C   UNL     1      -0.376   0.761   0.668  1.00  0.00     0.005 C 
ATOM     14  C   UNL     1       0.152  -1.551   1.707  1.00  0.00     0.114 C 
ATOM     15  C   UNL     1      -0.581  -2.354  -0.498  1.00  0.00     0.106 C 
ATOM     16  C   UNL     1      -5.669  -0.481  -0.529  1.00  0.00     0.087 A 
ATOM     17  C   UNL     1      -3.897   0.797  -0.422  1.00  0.00     0.010 A 
ATOM     18  C   UNL     1      -2.370   2.584  -0.778  1.00  0.00     0.009 A 
ATOM     19  N   UNL     1      -6.021   0.721  -1.058  1.00  0.00    -0.361 N 
ATOM     20  C   UNL     1      -4.917   1.489  -0.992  1.00  0.00     0.046 A 
ATOM     21  C   UNL     1      -3.423   3.326  -1.372  1.00  0.00     0.003 A 
ATOM     22  H   UNL     1      -6.940   0.971  -1.485  1.00  0.00     0.166 HD
ATOM     23  C   UNL     1      -4.719   2.776  -1.488  1.00  0.00     0.027 A 
ENDBRANCH   1   6
BRANCH   4  24
ATOM     24  C   UNL     1       4.542  -0.598  -1.399  1.00  0.00     0.118 C 
ATOM     25  C   UNL     1       4.568  -2.123  -1.376  1.00  0.00     0.027 C 
ENDBRANCH   4  24
BRANCH   4  26
ATOM     26  C   UNL     1       4.859   0.497   0.864  1.00  0.00     0.118 C 
ATOM     27  C   UNL     1       4.761   2.020   0.875  1.00  0.00     0.027 C 
ENDBRANCH   4  26
TORSDOF 3
