REMARK SMILES Cc1cc2nc3c(=O)[nH]c(=O)nc-3n(C[C@H](O)[C@H](O)[C@H](O)CO)c2cc1C
REMARK SMILES IDX 18 1 16 2 15 3 14 4 1 5 2 6 26 7 3 8 27 9 25 10 4 11 24 12
REMARK SMILES IDX 5 13 6 14 13 15 7 16 12 17 9 18 8 19 10 20 11 22 17 23 19 25
REMARK SMILES IDX 20 27 21 28 22 30 23 31
REMARK H PARENT 9 21 17 24 19 26 21 29 23 32
REMARK Flexibility Score: inf
ROOT
ATOM      1  C   UNL     1       3.354   0.791   0.037  1.00  0.00     0.175 C 
ENDROOT
BRANCH   1   2
ATOM      2  C   UNL     1       1.874   0.708  -0.423  1.00  0.00     0.165 C 
BRANCH   2   3
ATOM      3  C   UNL     1       0.873   0.881   0.740  1.00  0.00     0.159 C 
BRANCH   3   4
ATOM      4  N   UNL     1      -0.506   1.085   0.234  1.00  0.00    -0.320 N 
ATOM      5  C   UNL     1      -4.307  -3.154  -0.519  1.00  0.00     0.044 C 
ATOM      6  C   UNL     1      -3.286  -2.064  -0.315  1.00  0.00    -0.046 A 
ATOM      7  C   UNL     1      -1.966  -2.360   0.088  1.00  0.00    -0.046 A 
ATOM      8  C   UNL     1      -3.644  -0.735  -0.568  1.00  0.00     0.034 A 
ATOM      9  C   UNL     1      -1.533  -3.782   0.346  1.00  0.00     0.044 C 
ATOM     10  C   UNL     1      -1.044  -1.316   0.272  1.00  0.00     0.032 A 
ATOM     11  C   UNL     1      -2.725   0.303  -0.399  1.00  0.00     0.088 A 
ATOM     12  C   UNL     1      -1.399   0.037   0.048  1.00  0.00     0.069 A 
ATOM     13  N   UNL     1      -3.120   1.569  -0.680  1.00  0.00    -0.237 NA
ATOM     14  C   UNL     1      -2.271   2.608  -0.547  1.00  0.00     0.172 A 
ATOM     15  C   UNL     1      -0.903   2.363  -0.077  1.00  0.00     0.170 A 
ATOM     16  C   UNL     1      -2.644   3.918  -0.845  1.00  0.00     0.281 A 
ATOM     17  N   UNL     1      -0.062   3.426   0.036  1.00  0.00    -0.173 NA
ATOM     18  N   UNL     1      -1.739   4.925  -0.701  1.00  0.00    -0.271 N 
ATOM     19  O   UNL     1      -3.812   4.172  -1.249  1.00  0.00    -0.267 OA
ATOM     20  C   UNL     1      -0.467   4.687  -0.270  1.00  0.00     0.349 A 
ATOM     21  H   UNL     1      -2.026   5.904  -0.929  1.00  0.00     0.175 HD
ATOM     22  O   UNL     1       0.344   5.643  -0.151  1.00  0.00    -0.246 OA
ENDBRANCH   3   4
ENDBRANCH   2   3
BRANCH   2  23
ATOM     23  O   UNL     1       1.645  -0.497  -1.108  1.00  0.00    -0.388 OA
ATOM     24  H   UNL     1       0.913  -0.330  -1.758  1.00  0.00     0.211 HD
ENDBRANCH   2  23
ENDBRANCH   1   2
BRANCH   1  25
ATOM     25  O   UNL     1       4.205   0.577  -1.062  1.00  0.00    -0.388 OA
ATOM     26  H   UNL     1       4.154   1.389  -1.632  1.00  0.00     0.211 HD
ENDBRANCH   1  25
BRANCH   1  27
ATOM     27  C   UNL     1       3.758  -0.155   1.201  1.00  0.00     0.171 C 
BRANCH  27  28
ATOM     28  O   UNL     1       5.115   0.060   1.500  1.00  0.00    -0.388 OA
ATOM     29  H   UNL     1       5.269  -0.281   2.420  1.00  0.00     0.211 HD
ENDBRANCH  27  28
BRANCH  27  30
ATOM     30  C   UNL     1       3.530  -1.652   0.918  1.00  0.00     0.190 C 
BRANCH  30  31
ATOM     31  O   UNL     1       4.234  -2.055  -0.225  1.00  0.00    -0.394 OA
ATOM     32  H   UNL     1       4.023  -3.016  -0.353  1.00  0.00     0.210 HD
ENDBRANCH  30  31
ENDBRANCH  27  30
ENDBRANCH   1  27
TORSDOF 9
