REMARK SMILES O=C(O)Cc1ccccc1Nc1c(Cl)cccc1Cl
REMARK SMILES IDX 5 1 6 2 7 3 8 4 9 5 10 6 4 7 2 8 1 9 3 10 11 12 12 14 13 15
REMARK SMILES IDX 18 16 14 17 15 18 17 19 19 20 16 21
REMARK H PARENT 3 11 11 13
REMARK Flexibility Score: inf
ROOT
ATOM      1  C   UNL     1      -1.443  -0.915  -1.382  1.00  0.00    -0.013 A 
ATOM      2  C   UNL     1      -2.254  -2.060  -1.293  1.00  0.00     0.006 A 
ATOM      3  C   UNL     1      -1.908  -3.114  -0.447  1.00  0.00     0.000 A 
ATOM      4  C   UNL     1      -0.752  -3.038   0.328  1.00  0.00     0.002 A 
ATOM      5  C   UNL     1       0.061  -1.906   0.261  1.00  0.00     0.026 A 
ATOM      6  C   UNL     1      -0.272  -0.830  -0.584  1.00  0.00     0.042 A 
ENDROOT
BRANCH   1   7
ATOM      7  C   UNL     1      -1.887   0.224  -2.271  1.00  0.00     0.160 C 
BRANCH   7   8
ATOM      8  C   UNL     1      -2.409   1.359  -1.448  1.00  0.00     0.307 C 
ATOM      9  O   UNL     1      -3.548   1.280  -0.916  1.00  0.00    -0.252 OA
BRANCH   8  10
ATOM     10  O   UNL     1      -1.623   2.489  -1.243  1.00  0.00    -0.481 OA
ATOM     11  H   UNL     1      -1.954   3.255  -0.670  1.00  0.00     0.296 HD
ENDBRANCH   8  10
ENDBRANCH   7   8
ENDBRANCH   1   7
BRANCH   6  12
ATOM     12  N   UNL     1       0.580   0.331  -0.640  1.00  0.00    -0.353 N 
ATOM     13  H   UNL     1       0.705   0.825  -1.550  1.00  0.00     0.167 HD
BRANCH  12  14
ATOM     14  C   UNL     1       1.410   0.749   0.456  1.00  0.00     0.076 A 
ATOM     15  C   UNL     1       0.849   1.040   1.719  1.00  0.00     0.066 A 
ATOM     16  C   UNL     1       2.797   0.900   0.265  1.00  0.00     0.066 A 
ATOM     17  Cl  UNL     1      -0.887   0.967   1.997  1.00  0.00    -0.082 Cl
ATOM     18  C   UNL     1       1.677   1.445   2.773  1.00  0.00     0.023 A 
ATOM     19  C   UNL     1       3.611   1.306   1.328  1.00  0.00     0.023 A 
ATOM     20  Cl  UNL     1       3.543   0.549  -1.289  1.00  0.00    -0.082 Cl
ATOM     21  C   UNL     1       3.053   1.574   2.579  1.00  0.00     0.003 A 
ENDBRANCH  12  14
ENDBRANCH   6  12
TORSDOF 5
