REMARK SMILES CCCc1nc(C)c2c(=O)nc(-c3cc(S(=O)(=O)N4CCN(CC)CC4)ccc3OCC)[nH]n12
REMARK SMILES IDX 13 1 29 2 28 3 27 4 15 5 14 6 12 7 4 8 5 9 34 10 6 11 8 12
REMARK SMILES IDX 33 13 7 14 9 15 11 17 10 18 3 19 2 20 1 21 30 22 31 23 32 24
REMARK SMILES IDX 16 25 17 26 18 27 19 28 20 29 26 30 21 31 25 32 22 33 23 34
REMARK SMILES IDX 24 35
REMARK H PARENT 33 16
REMARK Flexibility Score: inf
ROOT
ATOM      1  C   UNL     1      -1.178   0.550   1.001  1.00  0.00     0.062 A 
ATOM      2  C   UNL     1      -1.274   1.424   2.107  1.00  0.00     0.130 A 
ATOM      3  C   UNL     1      -0.356   1.294   3.168  1.00  0.00     0.048 A 
ATOM      4  C   UNL     1       0.636   0.313   3.133  1.00  0.00     0.025 A 
ATOM      5  C   UNL     1       0.728  -0.558   2.044  1.00  0.00     0.083 A 
ATOM      6  C   UNL     1      -0.173  -0.434   0.981  1.00  0.00     0.037 A 
ENDROOT
BRANCH   1   7
ATOM      7  C   UNL     1      -2.103   0.674  -0.153  1.00  0.00     0.160 A 
ATOM      8  C   UNL     1      -3.965  -1.190  -2.650  1.00  0.00     0.129 A 
ATOM      9  N   UNL     1      -4.755  -0.606  -3.585  1.00  0.00    -0.236 NA
ATOM     10  N   UNL     1      -3.375  -0.273  -1.855  1.00  0.00    -0.233 N 
ATOM     11  C   UNL     1      -4.629   0.725  -3.359  1.00  0.00     0.071 A 
ATOM     12  C   UNL     1      -3.780   0.921  -2.287  1.00  0.00     0.153 A 
ATOM     13  N   UNL     1      -2.557  -0.437  -0.814  1.00  0.00    -0.275 N 
ATOM     14  C   UNL     1      -5.339   1.776  -4.148  1.00  0.00     0.069 C 
ATOM     15  C   UNL     1      -3.343   2.068  -1.636  1.00  0.00     0.299 A 
ATOM     16  H   UNL     1      -2.290  -1.394  -0.494  1.00  0.00     0.190 HD
ATOM     17  N   UNL     1      -2.503   1.915  -0.575  1.00  0.00    -0.188 NA
ATOM     18  O   UNL     1      -3.704   3.217  -2.003  1.00  0.00    -0.265 OA
BRANCH   8  19
ATOM     19  C   UNL     1      -3.845  -2.680  -2.498  1.00  0.00     0.077 C 
BRANCH  19  20
ATOM     20  C   UNL     1      -5.007  -3.264  -1.683  1.00  0.00     0.005 C 
ATOM     21  C   UNL     1      -4.957  -2.855  -0.212  1.00  0.00     0.004 C 
ENDBRANCH  19  20
ENDBRANCH   8  19
ENDBRANCH   1   7
BRANCH   2  22
ATOM     22  O   UNL     1      -2.300   2.387   2.127  1.00  0.00    -0.493 OA
BRANCH  22  23
ATOM     23  C   UNL     1      -2.453   3.429   3.090  1.00  0.00     0.226 C 
ATOM     24  C   UNL     1      -1.432   4.537   2.853  1.00  0.00     0.049 C 
ENDBRANCH  22  23
ENDBRANCH   2  22
BRANCH   5  25
ATOM     25  S   UNL     1       2.011  -1.765   1.990  1.00  0.00     0.243 S 
ATOM     26  O   UNL     1       2.225  -2.309   3.375  1.00  0.00    -0.207 OA
ATOM     27  O   UNL     1       1.604  -2.899   1.089  1.00  0.00    -0.207 OA
BRANCH  25  28
ATOM     28  N   UNL     1       3.486  -1.033   1.412  1.00  0.00    -0.195 NA
ATOM     29  C   UNL     1       3.257  -0.419   0.087  1.00  0.00     0.118 C 
ATOM     30  C   UNL     1       4.552  -2.046   1.341  1.00  0.00     0.118 C 
ATOM     31  C   UNL     1       4.583  -0.046  -0.607  1.00  0.00     0.101 C 
ATOM     32  C   UNL     1       5.892  -1.387   0.954  1.00  0.00     0.101 C 
ATOM     33  N   UNL     1       5.680  -0.044   0.376  1.00  0.00    -0.301 NA
BRANCH  33  34
ATOM     34  C   UNL     1       6.924   0.590  -0.113  1.00  0.00     0.081 C 
ATOM     35  C   UNL     1       7.480  -0.010  -1.413  1.00  0.00     0.021 C 
ENDBRANCH  33  34
ENDBRANCH  25  28
ENDBRANCH   5  25
TORSDOF 8
