REMARK SMILES COc1ccc(OC)c(C(O)CNC(=O)CN)c1
REMARK SMILES IDX 12 1 10 2 9 3 3 4 18 5 4 6 5 7 6 8 2 9 1 10 7 11 8 12 11 13
REMARK SMILES IDX 13 15 14 16 15 18 16 19 17 20
REMARK H PARENT 11 14 13 17 17 21 17 22
REMARK Flexibility Score: inf
ROOT
ATOM      1  C   UNL     1       1.588  -1.850   0.068  1.00  0.00     0.152 C 
ENDROOT
BRANCH   1   2
ATOM      2  C   UNL     1       0.924  -1.526   1.425  1.00  0.00     0.167 C 
BRANCH   2   3
ATOM      3  C   UNL     1      -0.240  -0.555   1.284  1.00  0.00     0.028 A 
ATOM      4  C   UNL     1      -1.137   1.682   1.698  1.00  0.00     0.119 A 
ATOM      5  C   UNL     1      -0.108   0.744   1.812  1.00  0.00     0.056 A 
ATOM      6  C   UNL     1      -2.325   1.319   1.044  1.00  0.00     0.050 A 
ATOM      7  C   UNL     1      -2.474   0.038   0.513  1.00  0.00     0.050 A 
ATOM      8  C   UNL     1      -1.439  -0.911   0.624  1.00  0.00     0.124 A 
BRANCH   4   9
ATOM      9  O   UNL     1      -0.939   2.958   2.245  1.00  0.00    -0.497 OA
ATOM     10  C   UNL     1      -1.897   4.010   2.200  1.00  0.00     0.278 C 
ENDBRANCH   4   9
BRANCH   8  11
ATOM     11  O   UNL     1      -1.576  -2.203   0.090  1.00  0.00    -0.496 OA
ATOM     12  C   UNL     1      -2.724  -2.678  -0.606  1.00  0.00     0.278 C 
ENDBRANCH   8  11
ENDBRANCH   2   3
BRANCH   2  13
ATOM     13  O   UNL     1       0.518  -2.689   2.108  1.00  0.00    -0.386 OA
ATOM     14  H   UNL     1       0.144  -3.331   1.451  1.00  0.00     0.211 HD
ENDBRANCH   2  13
ENDBRANCH   1   2
BRANCH   1  15
ATOM     15  N   UNL     1       2.168  -0.654  -0.544  1.00  0.00    -0.352 N 
ATOM     16  C   UNL     1       2.791  -0.700  -1.833  1.00  0.00     0.233 C 
ATOM     17  H   UNL     1       2.131   0.263  -0.043  1.00  0.00     0.163 HD
ATOM     18  O   UNL     1       2.851  -1.785  -2.473  1.00  0.00    -0.274 OA
BRANCH  16  19
ATOM     19  C   UNL     1       3.340   0.551  -2.446  1.00  0.00     0.178 C 
BRANCH  19  20
ATOM     20  N   UNL     1       2.247   1.384  -2.934  1.00  0.00    -0.322 NA
ATOM     21  H   UNL     1       2.661   2.277  -3.287  1.00  0.00     0.119 HD
ATOM     22  H   UNL     1       1.817   0.908  -3.760  1.00  0.00     0.119 HD
ENDBRANCH  19  20
ENDBRANCH  16  19
ENDBRANCH   1  15
TORSDOF 8
