REMARK SMILES C/C=C(C(=C/C)/c1ccc(O)cc1)\c1ccc(O)cc1
REMARK SMILES IDX 2 1 1 2 3 3 4 4 5 5 6 6 7 7 8 8 13 9 9 10 12 11 10 12 11 13
REMARK SMILES IDX 14 15 15 16 20 17 16 18 19 19 17 20 18 21
REMARK H PARENT 11 14 18 22
REMARK Flexibility Score: inf
ROOT
ATOM      1  C   UNL     1      -0.493   1.388   1.356  1.00  0.00    -0.021 C 
ATOM      2  C   UNL     1      -1.632   1.640   2.299  1.00  0.00     0.036 C 
ATOM      3  C   UNL     1      -0.604   0.656   0.228  1.00  0.00    -0.015 C 
ENDROOT
BRANCH   3   4
ATOM      4  C   UNL     1       0.610   0.358  -0.589  1.00  0.00    -0.015 C 
ATOM      5  C   UNL     1       0.502   0.215  -1.926  1.00  0.00    -0.021 C 
ATOM      6  C   UNL     1       1.640  -0.195  -2.812  1.00  0.00     0.036 C 
BRANCH   4   7
ATOM      7  C   UNL     1       1.910   0.161   0.098  1.00  0.00    -0.018 A 
ATOM      8  C   UNL     1       2.978   1.046  -0.120  1.00  0.00     0.012 A 
ATOM      9  C   UNL     1       2.061  -0.891   1.015  1.00  0.00     0.012 A 
ATOM     10  C   UNL     1       4.190   0.865   0.552  1.00  0.00     0.047 A 
ATOM     11  C   UNL     1       3.275  -1.070   1.686  1.00  0.00     0.047 A 
ATOM     12  C   UNL     1       4.343  -0.193   1.454  1.00  0.00     0.115 A 
BRANCH  12  13
ATOM     13  O   UNL     1       5.557  -0.362   2.116  1.00  0.00    -0.508 OA
ATOM     14  H   UNL     1       5.700  -1.118   2.776  1.00  0.00     0.293 HD
ENDBRANCH  12  13
ENDBRANCH   4   7
ENDBRANCH   3   4
BRANCH   3  15
ATOM     15  C   UNL     1      -1.908   0.082  -0.184  1.00  0.00    -0.018 A 
ATOM     16  C   UNL     1      -2.967   0.917  -0.578  1.00  0.00     0.012 A 
ATOM     17  C   UNL     1      -2.074  -1.311  -0.232  1.00  0.00     0.012 A 
ATOM     18  C   UNL     1      -4.183   0.364  -0.989  1.00  0.00     0.047 A 
ATOM     19  C   UNL     1      -3.291  -1.861  -0.644  1.00  0.00     0.047 A 
ATOM     20  C   UNL     1      -4.350  -1.024  -1.021  1.00  0.00     0.115 A 
BRANCH  20  21
ATOM     21  O   UNL     1      -5.568  -1.561  -1.433  1.00  0.00    -0.508 OA
ATOM     22  H   UNL     1      -5.720  -2.562  -1.468  1.00  0.00     0.293 HD
ENDBRANCH  20  21
ENDBRANCH   3  15
TORSDOF 5
