REMARK SMILES CC1(C)NC(=O)N(c2ccc([N+](=O)[O-])c(C(F)(F)F)c2)C1=O
REMARK SMILES IDX 8 1 20 2 15 3 11 4 10 5 9 6 7 7 1 8 2 9 3 10 4 11 21 12 5 13
REMARK SMILES IDX 22 15 6 16 16 17 17 18 18 19 19 20 12 21 14 22 13 23
REMARK H PARENT 4 14
REMARK Flexibility Score: inf
ROOT
ATOM      1  C   UNL     1       0.618   0.576   0.168  1.00  0.00     0.055 A 
ATOM      2  C   UNL     1       1.445  -0.538   0.370  1.00  0.00     0.047 A 
ATOM      3  C   UNL     1       2.845  -0.441   0.243  1.00  0.00     0.135 A 
ATOM      4  C   UNL     1       3.422   0.829  -0.037  1.00  0.00     0.281 A 
ATOM      5  C   UNL     1       2.582   1.932  -0.255  1.00  0.00     0.088 A 
ATOM      6  C   UNL     1       1.197   1.808  -0.155  1.00  0.00     0.034 A 
ENDROOT
BRANCH   1   7
ATOM      7  N   UNL     1      -0.811   0.455   0.287  1.00  0.00    -0.230 N 
ATOM      8  C   UNL     1      -3.625  -1.426   1.175  1.00  0.00     0.045 C 
ATOM      9  C   UNL     1      -3.093  -0.388   0.181  1.00  0.00     0.116 C 
ATOM     10  C   UNL     1      -3.930  -0.355  -1.103  1.00  0.00     0.045 C 
ATOM     11  N   UNL     1      -3.071   0.938   0.800  1.00  0.00    -0.323 N 
ATOM     12  C   UNL     1      -1.637  -0.632  -0.126  1.00  0.00     0.260 C 
ATOM     13  C   UNL     1      -1.723   1.387   0.846  1.00  0.00     0.329 C 
ATOM     14  H   UNL     1      -3.898   1.459   1.169  1.00  0.00     0.166 HD
ATOM     15  O   UNL     1      -1.197  -1.654  -0.718  1.00  0.00    -0.271 OA
ATOM     16  O   UNL     1      -1.380   2.480   1.370  1.00  0.00    -0.248 OA
ENDBRANCH   1   7
BRANCH   3  17
ATOM     17  C   UNL     1       3.693  -1.685   0.427  1.00  0.00     0.423 C 
ATOM     18  F   UNL     1       2.936  -2.836   0.288  1.00  0.00    -0.166 F 
ATOM     19  F   UNL     1       4.698  -1.729  -0.524  1.00  0.00    -0.166 F 
ATOM     20  F   UNL     1       4.253  -1.679   1.691  1.00  0.00    -0.166 F 
ENDBRANCH   3  17
BRANCH   4  21
ATOM     21  N   UNL     1       4.845   1.024  -0.102  1.00  0.00     0.063 N 
ATOM     22  O   UNL     1       5.370   1.952  -0.973  1.00  0.00    -0.258 OA
ATOM     23  O   UNL     1       5.595   0.518   0.758  1.00  0.00    -0.258 OA
ENDBRANCH   4  21
TORSDOF 3
