REMARK SMILES NS(=O)(=O)c1cc(C2(O)NC(=O)c3ccccc32)ccc1Cl
REMARK SMILES IDX 5 1 21 2 22 3 20 4 19 5 7 6 6 7 2 8 3 9 4 10 1 11 8 14 10 15
REMARK SMILES IDX 18 16 11 17 13 19 17 20 12 21 14 22 16 23 15 24 9 25
REMARK H PARENT 1 12 1 13 10 18 9 26
REMARK Flexibility Score: inf
ROOT
ATOM      1  C   UNL     1       2.494   0.579  -0.051  1.00  0.00     0.101 A 
ATOM      2  C   UNL     1       2.550   0.241  -1.418  1.00  0.00     0.061 A 
ATOM      3  Cl  UNL     1       3.871   0.769  -2.455  1.00  0.00    -0.083 Cl
ATOM      4  C   UNL     1       1.529  -0.526  -1.986  1.00  0.00     0.022 A 
ATOM      5  C   UNL     1       0.459  -0.969  -1.208  1.00  0.00     0.011 A 
ATOM      6  C   UNL     1       0.401  -0.670   0.165  1.00  0.00     0.010 A 
ATOM      7  C   UNL     1       1.416   0.128   0.726  1.00  0.00     0.032 A 
ENDROOT
BRANCH   1   8
ATOM      8  S   UNL     1       3.756   1.566   0.696  1.00  0.00     0.239 S 
ATOM      9  O   UNL     1       3.449   1.799   2.149  1.00  0.00    -0.207 OA
ATOM     10  O   UNL     1       3.832   2.895  -0.002  1.00  0.00    -0.207 OA
BRANCH   8  11
ATOM     11  N   UNL     1       5.276   0.752   0.567  1.00  0.00    -0.225 NA
ATOM     12  H   UNL     1       5.187  -0.146   1.094  1.00  0.00     0.137 HD
ATOM     13  H   UNL     1       5.979   1.333   1.077  1.00  0.00     0.137 HD
ENDBRANCH   8  11
ENDBRANCH   1   8
BRANCH   6  14
ATOM     14  C   UNL     1      -0.794  -1.103   1.005  1.00  0.00     0.192 C 
ATOM     15  N   UNL     1      -1.355  -2.380   0.535  1.00  0.00    -0.316 N 
ATOM     16  C   UNL     1      -1.942  -0.140   0.826  1.00  0.00     0.022 A 
ATOM     17  C   UNL     1      -2.700  -2.164   0.129  1.00  0.00     0.254 C 
ATOM     18  H   UNL     1      -0.856  -3.297   0.516  1.00  0.00     0.167 HD
ATOM     19  C   UNL     1      -3.049  -0.779   0.311  1.00  0.00     0.048 A 
ATOM     20  C   UNL     1      -1.984   1.226   1.121  1.00  0.00     0.010 A 
ATOM     21  O   UNL     1      -3.455  -3.066  -0.321  1.00  0.00    -0.269 OA
ATOM     22  C   UNL     1      -4.243  -0.106   0.057  1.00  0.00     0.014 A 
ATOM     23  C   UNL     1      -3.174   1.931   0.874  1.00  0.00     0.001 A 
ATOM     24  C   UNL     1      -4.299   1.268   0.343  1.00  0.00     0.001 A 
BRANCH  14  25
ATOM     25  O   UNL     1      -0.473  -1.202   2.370  1.00  0.00    -0.363 OA
ATOM     26  H   UNL     1       0.188  -1.938   2.460  1.00  0.00     0.214 HD
ENDBRANCH  14  25
ENDBRANCH   6  14
TORSDOF 4
