REMARK SMILES Nc1cc(N2CCCCC2)nc(N)[n+]1[O-]
REMARK SMILES IDX 2 1 3 2 4 3 11 4 12 5 14 6 15 7 1 8 5 11 6 12 10 13 7 14
REMARK SMILES IDX 9 15 8 16 13 17
REMARK H PARENT 1 9 1 10 13 18 13 19
REMARK Flexibility Score: inf
ROOT
ATOM      1  C   UNL     1      -2.827  -0.785   0.206  1.00  0.00     0.197 A 
ATOM      2  C   UNL     1      -1.446  -0.957   0.071  1.00  0.00     0.132 A 
ATOM      3  C   UNL     1      -0.625   0.174   0.012  1.00  0.00     0.195 A 
ATOM      4  N   UNL     1      -1.189   1.406   0.107  1.00  0.00    -0.089 NA
ATOM      5  C   UNL     1      -2.531   1.569   0.239  1.00  0.00     0.346 A 
ATOM      6  N   UNL     1      -3.350   0.476   0.284  1.00  0.00    -0.245 N 
ATOM      7  O   UNL     1      -4.710   0.646   0.417  1.00  0.00    -0.754 OA
ENDROOT
BRANCH   1   8
ATOM      8  N   UNL     1      -3.680  -1.934   0.267  1.00  0.00    -0.335 N 
ATOM      9  H   UNL     1      -3.280  -2.898   0.209  1.00  0.00     0.229 HD
ATOM     10  H   UNL     1      -4.714  -1.839   0.371  1.00  0.00     0.229 HD
ENDBRANCH   1   8
BRANCH   3  11
ATOM     11  N   UNL     1       0.804   0.045  -0.114  1.00  0.00    -0.346 N 
ATOM     12  C   UNL     1       1.380  -0.802  -1.169  1.00  0.00     0.119 C 
ATOM     13  C   UNL     1       1.676   1.049   0.509  1.00  0.00     0.119 C 
ATOM     14  C   UNL     1       2.666  -1.466  -0.671  1.00  0.00     0.022 C 
ATOM     15  C   UNL     1       2.970   0.394   1.005  1.00  0.00     0.022 C 
ATOM     16  C   UNL     1       3.635  -0.419  -0.110  1.00  0.00     0.004 C 
ENDBRANCH   3  11
BRANCH   5  17
ATOM     17  N   UNL     1      -3.068   2.891   0.329  1.00  0.00    -0.307 N 
ATOM     18  H   UNL     1      -4.093   3.059   0.432  1.00  0.00     0.232 HD
ATOM     19  H   UNL     1      -2.431   3.717   0.294  1.00  0.00     0.232 HD
ENDBRANCH   5  17
TORSDOF 3
