REMARK SMILES CC1(C)O[C@@H]2C[C@H]3[C@@H]4C[C@H](F)C5=CC(=O)C=C[C@]5(C)[C@H]4[C@@H](O)C[C@]3(C)[C@]2(C(=O)CO)O1
REMARK SMILES IDX 27 1 28 2 26 3 5 4 6 5 4 6 7 7 24 8 31 9 2 10 8 11 23 12
REMARK SMILES IDX 25 13 1 14 3 15 9 16 20 17 21 18 10 19 18 20 11 21 12 22
REMARK SMILES IDX 17 23 19 24 13 25 16 26 14 27 15 28 22 29 29 31 30 32
REMARK H PARENT 22 30 30 33
REMARK Flexibility Score: inf
ROOT
ATOM      1  C   UNL     1      -3.503   1.622  -0.146  1.00  0.00     0.193 C 
ATOM      2  O   UNL     1      -3.893   2.241  -1.124  1.00  0.00    -0.294 OA
ENDROOT
BRANCH   1   3
ATOM      3  C   UNL     1      -2.510   0.468  -0.301  1.00  0.00     0.164 C 
ATOM      4  C   UNL     1      -2.557  -0.228  -1.666  1.00  0.00     0.162 C 
ATOM      5  C   UNL     1      -1.098  -0.544  -2.067  1.00  0.00     0.040 C 
ATOM      6  O   UNL     1      -3.276  -1.413  -1.495  1.00  0.00    -0.344 OA
ATOM      7  C   UNL     1      -0.300  -0.276  -0.798  1.00  0.00     0.005 C 
ATOM      8  C   UNL     1      -1.019   0.907  -0.142  1.00  0.00     0.012 C 
ATOM      9  O   UNL     1      -2.839  -0.537   0.619  1.00  0.00    -0.333 OA
ATOM     10  C   UNL     1      -3.500  -1.550  -0.108  1.00  0.00     0.164 C 
ATOM     11  C   UNL     1       1.233  -0.099  -0.886  1.00  0.00     0.003 C 
ATOM     12  C   UNL     1      -0.512   1.018   1.318  1.00  0.00     0.042 C 
ATOM     13  C   UNL     1      -0.791   2.259  -0.904  1.00  0.00     0.015 C 
ATOM     14  C   UNL     1      -2.965  -2.912   0.345  1.00  0.00     0.075 C 
ATOM     15  C   UNL     1      -5.007  -1.473   0.167  1.00  0.00     0.075 C 
ATOM     16  C   UNL     1       1.864  -1.319  -1.587  1.00  0.00     0.046 C 
ATOM     17  C   UNL     1       1.794   0.051   0.574  1.00  0.00     0.035 C 
ATOM     18  C   UNL     1       1.035   1.150   1.406  1.00  0.00     0.119 C 
ATOM     19  C   UNL     1       3.388  -1.220  -1.624  1.00  0.00     0.194 C 
ATOM     20  C   UNL     1       3.373   0.127   0.617  1.00  0.00     0.016 C 
ATOM     21  F   UNL     1       3.888  -2.356  -2.241  1.00  0.00    -0.243 F 
ATOM     22  C   UNL     1       3.923  -1.046  -0.217  1.00  0.00    -0.022 C 
ATOM     23  C   UNL     1       3.846   0.078   2.072  1.00  0.00    -0.012 C 
ATOM     24  C   UNL     1       3.941   1.434   0.010  1.00  0.00     0.021 C 
ATOM     25  C   UNL     1       4.904  -1.848   0.238  1.00  0.00     0.055 C 
ATOM     26  C   UNL     1       4.804  -0.743   2.504  1.00  0.00     0.048 C 
ATOM     27  C   UNL     1       5.413  -1.715   1.602  1.00  0.00     0.178 C 
ATOM     28  O   UNL     1       6.362  -2.442   2.000  1.00  0.00    -0.290 OA
BRANCH  18  29
ATOM     29  O   UNL     1       1.432   2.438   1.019  1.00  0.00    -0.393 OA
ATOM     30  H   UNL     1       1.184   3.060   1.751  1.00  0.00     0.210 HD
ENDBRANCH  18  29
ENDBRANCH   1   3
BRANCH   1  31
ATOM     31  C   UNL     1      -3.949   2.082   1.217  1.00  0.00     0.234 C 
BRANCH  31  32
ATOM     32  O   UNL     1      -5.350   2.112   1.280  1.00  0.00    -0.388 OA
ATOM     33  H   UNL     1      -5.632   2.980   0.886  1.00  0.00     0.211 HD
ENDBRANCH  31  32
ENDBRANCH   1  31
TORSDOF 4
