REMARK SMILES COC(=O)C(c1ccccc1)C1CCCCN1
REMARK SMILES IDX 3 1 4 2 2 3 1 4 5 5 12 6 13 7 17 8 14 9 16 10 15 12 6 13
REMARK SMILES IDX 7 14 11 15 8 16 10 17 9 18
REMARK H PARENT 17 11
REMARK Flexibility Score: inf
ROOT
ATOM      1  C   UNL     1      -0.904   1.803   0.412  1.00  0.00     0.314 C 
ATOM      2  O   UNL     1      -1.231   2.014   1.614  1.00  0.00    -0.252 OA
ENDROOT
BRANCH   1   3
ATOM      3  O   UNL     1      -1.147   2.770  -0.567  1.00  0.00    -0.469 OA
ATOM      4  C   UNL     1      -1.740   4.029  -0.270  1.00  0.00     0.282 C 
ENDBRANCH   1   3
BRANCH   1   5
ATOM      5  C   UNL     1      -0.292   0.487   0.008  1.00  0.00     0.146 C 
BRANCH   5   6
ATOM      6  C   UNL     1       0.763  -0.009   1.034  1.00  0.00     0.072 C 
ATOM      7  C   UNL     1       1.386  -1.367   0.602  1.00  0.00     0.020 C 
ATOM      8  N   UNL     1       1.781   1.046   1.259  1.00  0.00    -0.313 NA
ATOM      9  C   UNL     1       2.775  -1.547   1.211  1.00  0.00     0.003 C 
ATOM     10  C   UNL     1       2.979   0.880   0.423  1.00  0.00     0.081 C 
ATOM     11  H   UNL     1       2.076   1.032   2.264  1.00  0.00     0.123 HD
ATOM     12  C   UNL     1       3.726  -0.425   0.759  1.00  0.00     0.015 C 
ENDBRANCH   5   6
BRANCH   5  13
ATOM     13  C   UNL     1      -1.388  -0.537  -0.230  1.00  0.00    -0.032 A 
ATOM     14  C   UNL     1      -2.243  -0.943   0.814  1.00  0.00     0.004 A 
ATOM     15  C   UNL     1      -1.554  -1.107  -1.506  1.00  0.00     0.004 A 
ATOM     16  C   UNL     1      -3.240  -1.896   0.582  1.00  0.00     0.000 A 
ATOM     17  C   UNL     1      -2.553  -2.059  -1.732  1.00  0.00     0.000 A 
ATOM     18  C   UNL     1      -3.395  -2.453  -0.690  1.00  0.00     0.000 A 
ENDBRANCH   5  13
ENDBRANCH   1   5
TORSDOF 4
