REMARK SMILES CO[C@H]1/C=C/O[C@@]2(C)Oc3c(C)c(O)c4c(c3C2=O)C2=NC3(CCN(CC(C)C)CC3)NC2=C(NC(=O)/C(C)=C\C=C\[C@H](C)[C@H](O)[C@@H](C)[C@@H](O)[C@@H](C)[C@H](OC(C)=O)[C@@H]1C)C4=O
REMARK SMILES IDX 58 1 59 2 3 3 2 4 1 5 4 6 5 7 6 8 7 9 8 10 9 11 18 12 10 13
REMARK SMILES IDX 17 14 19 15 11 16 16 17 13 18 12 19 15 20 20 21 60 22 33 23
REMARK SMILES IDX 21 24 61 25 34 26 32 27 22 28 23 30 31 31 24 32 30 33 25 34
REMARK SMILES IDX 14 35 35 37 36 38 37 40 38 41 39 42 40 43 41 44 42 45 26 47
REMARK SMILES IDX 27 48 28 49 29 50 53 51 51 52 52 53 49 54 47 55 48 56 45 57
REMARK SMILES IDX 43 58 44 59 46 61 50 63 54 65 55 66 56 67 57 68
REMARK H PARENT 32 29 14 36 35 39 46 62 50 64
REMARK Flexibility Score: 50.00
ROOT
ATOM      1  C   UNL     1      -3.713   2.596   0.502  1.00  0.00     0.060 C 
ATOM      2  C   UNL     1      -3.692   3.704   1.578  1.00  0.00     0.015 C 
ENDROOT
BRANCH   1   3
ATOM      3  C   UNL     1      -3.080   3.098  -0.830  1.00  0.00     0.150 C 
BRANCH   3   4
ATOM      4  O   UNL     1      -3.734   4.293  -1.243  1.00  0.00    -0.377 OA
ATOM      5  C   UNL     1      -3.807   4.363  -2.654  1.00  0.00     0.195 C 
ENDBRANCH   3   4
BRANCH   3   6
ATOM      6  C   UNL     1      -1.593   3.321  -0.636  1.00  0.00     0.043 C 
ATOM      7  C   UNL     1      -1.027   4.538  -0.575  1.00  0.00     0.191 C 
BRANCH   7   8
ATOM      8  O   UNL     1       0.314   4.752  -0.213  1.00  0.00    -0.454 OA
BRANCH   8   9
ATOM      9  C   UNL     1       1.044   4.030   0.787  1.00  0.00     0.312 C 
ATOM     10  C   UNL     1       2.115   4.936   1.392  1.00  0.00     0.116 C 
ATOM     11  O   UNL     1       0.174   3.547   1.820  1.00  0.00    -0.444 OA
ATOM     12  C   UNL     1       1.662   2.775   0.245  1.00  0.00     0.251 C 
ATOM     13  C   UNL     1       0.255   2.158   1.907  1.00  0.00     0.143 A 
ATOM     14  C   UNL     1       1.171   1.645   1.024  1.00  0.00     0.079 A 
ATOM     15  O   UNL     1       2.439   2.712  -0.743  1.00  0.00    -0.285 OA
ATOM     16  C   UNL     1      -0.504   1.331   2.741  1.00  0.00     0.035 A 
ATOM     17  C   UNL     1       1.378   0.267   0.907  1.00  0.00     0.032 A 
ATOM     18  C   UNL     1      -0.365  -0.069   2.605  1.00  0.00     0.134 A 
ATOM     19  C   UNL     1      -1.441   1.916   3.764  1.00  0.00     0.052 C 
ATOM     20  C   UNL     1       0.527  -0.610   1.620  1.00  0.00     0.077 A 
ATOM     21  C   UNL     1       2.465  -0.331   0.128  1.00  0.00     0.095 C 
ATOM     22  C   UNL     1       0.546  -2.065   1.238  1.00  0.00     0.215 C 
ATOM     23  C   UNL     1       2.535  -1.742  -0.100  1.00  0.00     0.090 C 
ATOM     24  N   UNL     1       3.562   0.254  -0.215  1.00  0.00    -0.255 NA
ATOM     25  O   UNL     1      -0.411  -2.790   1.576  1.00  0.00    -0.287 OA
ATOM     26  C   UNL     1       1.642  -2.625   0.375  1.00  0.00     0.116 C 
ATOM     27  N   UNL     1       3.764  -2.012  -0.746  1.00  0.00    -0.358 N 
ATOM     28  C   UNL     1       4.511  -0.752  -0.724  1.00  0.00     0.132 C 
ATOM     29  H   UNL     1       4.172  -2.955  -0.952  1.00  0.00     0.163 HD
ATOM     30  C   UNL     1       5.001  -0.388  -2.135  1.00  0.00     0.068 C 
ATOM     31  C   UNL     1       5.689  -0.882   0.255  1.00  0.00     0.068 C 
ATOM     32  C   UNL     1       5.950   0.825  -2.104  1.00  0.00     0.089 C 
ATOM     33  C   UNL     1       6.605   0.352   0.198  1.00  0.00     0.089 C 
ATOM     34  N   UNL     1       7.085   0.637  -1.172  1.00  0.00    -0.303 NA
BRANCH  18  35
ATOM     35  O   UNL     1      -1.089  -0.882   3.483  1.00  0.00    -0.507 OA
ATOM     36  H   UNL     1      -0.868  -1.856   3.654  1.00  0.00     0.293 HD
ENDBRANCH  18  35
BRANCH  26  37
ATOM     37  N   UNL     1       1.719  -4.009  -0.058  1.00  0.00    -0.317 N 
ATOM     38  C   UNL     1       0.905  -5.124   0.360  1.00  0.00     0.251 C 
ATOM     39  H   UNL     1       2.301  -4.210  -0.903  1.00  0.00     0.170 HD
ATOM     40  O   UNL     1       0.609  -6.007  -0.489  1.00  0.00    -0.269 OA
BRANCH  38  41
ATOM     41  C   UNL     1       0.500  -5.342   1.760  1.00  0.00     0.014 C 
ATOM     42  C   UNL     1       1.572  -5.322   2.813  1.00  0.00     0.050 C 
ATOM     43  C   UNL     1      -0.779  -5.592   2.133  1.00  0.00     0.009 C 
BRANCH  43  44
ATOM     44  C   UNL     1      -2.034  -5.410   1.341  1.00  0.00    -0.003 C 
ATOM     45  C   UNL     1      -2.147  -4.703   0.206  1.00  0.00    -0.021 CG0
ATOM     46  G   UNL     1      -3.472  -4.203  -0.318  1.00  0.00     0.000 G0
ENDBRANCH  43  44
ENDBRANCH  38  41
ENDBRANCH  26  37
BRANCH  34  47
ATOM     47  C   UNL     1       8.094  -0.334  -1.660  1.00  0.00     0.087 C 
BRANCH  47  48
ATOM     48  C   UNL     1       9.497   0.301  -1.717  1.00  0.00    -0.003 C 
ATOM     49  C   UNL     1       9.964   0.792  -0.338  1.00  0.00     0.009 C 
ATOM     50  C   UNL     1       9.557   1.436  -2.743  1.00  0.00     0.009 C 
ENDBRANCH  47  48
ENDBRANCH  34  47
ENDBRANCH   8   9
ENDBRANCH   7   8
ENDBRANCH   3   6
ENDBRANCH   1   3
BRANCH   1  51
ATOM     51  C   UNL     1      -5.171   2.026   0.341  1.00  0.00     0.187 C 
BRANCH  51  52
ATOM     52  C   UNL     1      -5.273   0.465   0.483  1.00  0.00     0.056 C 
ATOM     53  C   UNL     1      -4.850   0.050   1.908  1.00  0.00     0.014 C 
BRANCH  52  54
ATOM     54  C   UNL     1      -4.509  -0.321  -0.647  1.00  0.00     0.126 C 
BRANCH  54  55
ATOM     55  C   UNL     1      -4.697  -1.889  -0.709  1.00  0.00     0.044 C 
ATOM     56  C   UNL     1      -6.115  -2.375  -0.353  1.00  0.00     0.013 C 
BRANCH  55  57
ATOM     57  C   UNL     1      -3.578  -2.685   0.031  1.00  0.00     0.126 C 
BRANCH  57  58
ATOM     58  C   UNL     1      -3.472  -4.203  -0.318  1.00  0.00     0.038 CG0
ATOM     59  C   UNL     1      -3.535  -4.508  -1.822  1.00  0.00     0.015 C 
ATOM     60  G   UNL     1      -2.147  -4.703   0.206  1.00  0.00     0.000 G0
ENDBRANCH  57  58
BRANCH  57  61
ATOM     61  O   UNL     1      -3.759  -2.571   1.419  1.00  0.00    -0.392 OA
ATOM     62  H   UNL     1      -2.871  -2.404   1.829  1.00  0.00     0.210 HD
ENDBRANCH  57  61
ENDBRANCH  55  57
ENDBRANCH  54  55
BRANCH  54  63
ATOM     63  O   UNL     1      -4.844   0.211  -1.905  1.00  0.00    -0.392 OA
ATOM     64  H   UNL     1      -5.812   0.049  -2.044  1.00  0.00     0.210 HD
ENDBRANCH  54  63
ENDBRANCH  52  54
ENDBRANCH  51  52
BRANCH  51  65
ATOM     65  O   UNL     1      -5.766   2.471  -0.882  1.00  0.00    -0.462 OA
BRANCH  65  66
ATOM     66  C   UNL     1      -7.148   2.515  -1.113  1.00  0.00     0.302 C 
ATOM     67  C   UNL     1      -7.648   2.931  -2.455  1.00  0.00     0.139 C 
ATOM     68  O   UNL     1      -7.968   2.243  -0.194  1.00  0.00    -0.253 OA
ENDBRANCH  65  66
ENDBRANCH  51  65
ENDBRANCH   1  51
TORSDOF 8
