REMARK SMILES Cl[C@H]1[C@H](Cl)[C@@H](Cl)[C@@H](Cl)[C@H](Cl)[C@H]1Cl
REMARK SMILES IDX 1 1 2 2 3 3 4 4 5 5 6 6 7 7 8 8 9 9 10 10 11 11 12 12
REMARK H PARENT
REMARK Flexibility Score: inf
ROOT
ATOM      1  Cl  UNL     1      -1.627   2.595  -0.804  1.00  0.00    -0.120 Cl
ATOM      2  C   UNL     1      -0.912   1.153  -0.013  1.00  0.00     0.120 C 
ATOM      3  C   UNL     1      -1.166  -0.122  -0.842  1.00  0.00     0.120 C 
ATOM      4  Cl  UNL     1      -2.932  -0.359  -1.053  1.00  0.00    -0.120 Cl
ATOM      5  C   UNL     1      -0.562  -1.352  -0.134  1.00  0.00     0.120 C 
ATOM      6  Cl  UNL     1      -0.865  -2.852  -1.069  1.00  0.00    -0.120 Cl
ATOM      7  C   UNL     1       0.949  -1.181   0.136  1.00  0.00     0.120 C 
ATOM      8  Cl  UNL     1       1.919  -1.301  -1.370  1.00  0.00    -0.120 Cl
ATOM      9  C   UNL     1       1.260   0.133   0.890  1.00  0.00     0.120 C 
ATOM     10  Cl  UNL     1       0.768  -0.019   2.606  1.00  0.00    -0.120 Cl
ATOM     11  C   UNL     1       0.591   1.377   0.260  1.00  0.00     0.120 C 
ATOM     12  Cl  UNL     1       1.472   1.900  -1.214  1.00  0.00    -0.120 Cl
ENDROOT
TORSDOF 0
