REMARK SMILES CN1CCN(C(=O)O[C@H]2c3nccnc3C(=O)N2c2ccc(Cl)cn2)CC1
REMARK SMILES IDX 9 1 18 2 16 3 17 4 15 5 14 6 13 7 12 8 11 9 10 10 8 11 6 12
REMARK SMILES IDX 1 13 2 14 3 15 27 16 4 17 26 18 5 19 7 20 19 21 25 22 20 23
REMARK SMILES IDX 24 24 21 25 22 26 23 27
REMARK H PARENT
REMARK Flexibility Score: inf
ROOT
ATOM      1  C   UNL     1      -1.911  -0.761  -0.719  1.00  0.00     0.338 C 
ATOM      2  N   UNL     1      -2.732  -0.450   0.466  1.00  0.00    -0.248 N 
ATOM      3  C   UNL     1      -3.319  -1.669   0.940  1.00  0.00     0.283 C 
ATOM      4  O   UNL     1      -3.972  -1.793   2.008  1.00  0.00    -0.267 OA
ATOM      5  C   UNL     1      -2.951  -2.741   0.058  1.00  0.00     0.156 A 
ATOM      6  N   UNL     1      -3.235  -4.063   0.134  1.00  0.00    -0.247 NA
ATOM      7  C   UNL     1      -2.708  -4.897  -0.811  1.00  0.00     0.132 A 
ATOM      8  C   UNL     1      -1.874  -4.375  -1.824  1.00  0.00     0.131 A 
ATOM      9  N   UNL     1      -1.593  -3.038  -1.855  1.00  0.00    -0.251 NA
ATOM     10  C   UNL     1      -2.143  -2.228  -0.917  1.00  0.00     0.134 A 
ENDROOT
BRANCH   1  11
ATOM     11  O   UNL     1      -0.531  -0.543  -0.430  1.00  0.00    -0.419 OA
BRANCH  11  12
ATOM     12  C   UNL     1       0.283   0.370  -1.111  1.00  0.00     0.412 C 
ATOM     13  C   UNL     1       5.742   0.832   0.331  1.00  0.00     0.105 C 
ATOM     14  N   UNL     1       4.478   0.435  -0.308  1.00  0.00    -0.303 NA
ATOM     15  C   UNL     1       3.556  -0.115   0.701  1.00  0.00     0.106 C 
ATOM     16  C   UNL     1       3.860   1.602  -0.964  1.00  0.00     0.106 C 
ATOM     17  C   UNL     1       2.284  -0.627   0.026  1.00  0.00     0.138 C 
ATOM     18  C   UNL     1       2.589   1.182  -1.710  1.00  0.00     0.138 C 
ATOM     19  N   UNL     1       1.697   0.411  -0.833  1.00  0.00    -0.306 N 
ATOM     20  O   UNL     1      -0.218   1.146  -1.972  1.00  0.00    -0.224 OA
ENDBRANCH  11  12
ENDBRANCH   1  11
BRANCH   2  21
ATOM     21  C   UNL     1      -2.928   0.879   0.985  1.00  0.00     0.138 A 
ATOM     22  N   UNL     1      -2.018   1.850   0.690  1.00  0.00    -0.237 NA
ATOM     23  C   UNL     1      -4.061   1.214   1.747  1.00  0.00     0.049 A 
ATOM     24  C   UNL     1      -2.155   3.131   1.128  1.00  0.00     0.134 A 
ATOM     25  C   UNL     1      -4.223   2.525   2.201  1.00  0.00     0.026 A 
ATOM     26  C   UNL     1      -3.263   3.492   1.895  1.00  0.00     0.059 A 
ATOM     27  Cl  UNL     1      -3.467   5.148   2.444  1.00  0.00    -0.083 Cl
ENDBRANCH   2  21
TORSDOF 3
