REMARK SMILES CCC(=O)O[C@](Cc1ccccc1)(c1ccccc1)[C@H](C)CN(C)C
REMARK SMILES IDX 6 1 5 2 3 3 4 4 2 5 1 6 7 7 8 8 9 9 13 10 10 11 12 12 11 13
REMARK SMILES IDX 20 14 21 15 22 16 23 17 24 18 25 19 14 20 15 21 19 22 16 23
REMARK SMILES IDX 18 24 17 25
REMARK H PARENT
REMARK Flexibility Score: inf
ROOT
ATOM      1  C   UNL     1       0.008  -0.278  -0.159  1.00  0.00     0.145 C 
ENDROOT
BRANCH   1   2
ATOM      2  O   UNL     1       0.369   1.052   0.266  1.00  0.00    -0.453 OA
BRANCH   2   3
ATOM      3  C   UNL     1       0.290   2.238  -0.482  1.00  0.00     0.306 C 
ATOM      4  O   UNL     1       0.057   2.219  -1.721  1.00  0.00    -0.252 OA
BRANCH   3   5
ATOM      5  C   UNL     1       0.532   3.545   0.202  1.00  0.00     0.119 C 
ATOM      6  C   UNL     1      -0.598   3.863   1.174  1.00  0.00     0.016 C 
ENDBRANCH   3   5
ENDBRANCH   2   3
ENDBRANCH   1   2
BRANCH   1   7
ATOM      7  C   UNL     1       0.494  -1.251   0.961  1.00  0.00     0.089 C 
BRANCH   7   8
ATOM      8  C   UNL     1       1.999  -1.287   1.120  1.00  0.00    -0.044 A 
ATOM      9  C   UNL     1       2.751  -2.317   0.528  1.00  0.00     0.004 A 
ATOM     10  C   UNL     1       2.664  -0.269   1.825  1.00  0.00     0.004 A 
ATOM     11  C   UNL     1       4.145  -2.324   0.638  1.00  0.00     0.000 A 
ATOM     12  C   UNL     1       4.057  -0.281   1.933  1.00  0.00     0.000 A 
ATOM     13  C   UNL     1       4.798  -1.307   1.339  1.00  0.00     0.000 A 
ENDBRANCH   7   8
ENDBRANCH   1   7
BRANCH   1  14
ATOM     14  C   UNL     1      -1.573  -0.386  -0.281  1.00  0.00     0.049 C 
ATOM     15  C   UNL     1      -2.157   0.303  -1.536  1.00  0.00     0.014 C 
BRANCH  14  16
ATOM     16  C   UNL     1      -2.314   0.142   0.982  1.00  0.00     0.091 C 
BRANCH  16  17
ATOM     17  N   UNL     1      -3.786   0.093   0.817  1.00  0.00    -0.309 NA
ATOM     18  C   UNL     1      -4.433   1.072   1.706  1.00  0.00     0.105 C 
ATOM     19  C   UNL     1      -4.312  -1.253   1.106  1.00  0.00     0.105 C 
ENDBRANCH  16  17
ENDBRANCH  14  16
ENDBRANCH   1  14
BRANCH   1  20
ATOM     20  C   UNL     1       0.743  -0.684  -1.457  1.00  0.00    -0.004 A 
ATOM     21  C   UNL     1       1.964  -0.070  -1.819  1.00  0.00     0.008 A 
ATOM     22  C   UNL     1       0.319  -1.801  -2.213  1.00  0.00     0.008 A 
ATOM     23  C   UNL     1       2.678  -0.497  -2.942  1.00  0.00     0.000 A 
ATOM     24  C   UNL     1       1.037  -2.221  -3.337  1.00  0.00     0.000 A 
ATOM     25  C   UNL     1       2.210  -1.564  -3.706  1.00  0.00     0.000 A 
ENDBRANCH   1  20
TORSDOF 9
