REMARK SMILES CC1CNc2c(cccc2S(=O)(=O)N[C@@H](CCCNC(=N)N)C(=O)N2CC[C@@H](C)C[C@@H]2C(=O)O)C1
REMARK SMILES IDX 15 1 23 2 24 3 25 4 29 5 28 6 27 7 30 8 26 9 31 10 32 11
REMARK SMILES IDX 33 12 34 13 16 15 17 16 18 17 19 18 20 19 22 21 21 22 14 26
REMARK SMILES IDX 11 28 12 29 13 30 10 31 9 32 5 33 8 34 6 35 4 36 7 37 35 38
REMARK SMILES IDX 3 39 2 41 1 42
REMARK H PARENT 34 14 19 20 22 23 22 24 21 25 14 27 4 40
REMARK Flexibility Score: inf
ROOT
ATOM      1  C   UNL     1      -0.485   0.126  -0.535  1.00  0.00     0.159 C 
ENDROOT
BRANCH   1   2
ATOM      2  C   UNL     1      -1.178  -0.421   0.704  1.00  0.00     0.241 C 
ATOM      3  O   UNL     1      -0.781   0.016   1.820  1.00  0.00    -0.273 OA
BRANCH   2   4
ATOM      4  N   UNL     1      -2.246  -1.409   0.671  1.00  0.00    -0.327 N 
ATOM      5  C   UNL     1      -4.488  -5.107   0.488  1.00  0.00     0.008 C 
ATOM      6  C   UNL     1      -4.113  -3.628   0.626  1.00  0.00    -0.010 C 
ATOM      7  C   UNL     1      -3.460  -3.113  -0.664  1.00  0.00     0.025 C 
ATOM      8  C   UNL     1      -3.152  -3.421   1.807  1.00  0.00     0.040 C 
ATOM      9  C   UNL     1      -3.069  -1.639  -0.534  1.00  0.00     0.121 C 
ATOM     10  C   UNL     1      -2.753  -1.940   1.956  1.00  0.00     0.195 C 
BRANCH  10  11
ATOM     11  C   UNL     1      -3.891  -1.090   2.477  1.00  0.00     0.326 C 
ATOM     12  O   UNL     1      -3.974   0.126   2.156  1.00  0.00    -0.250 OA
BRANCH  11  13
ATOM     13  O   UNL     1      -4.812  -1.624   3.376  1.00  0.00    -0.480 OA
ATOM     14  H   UNL     1      -5.562  -1.054   3.751  1.00  0.00     0.296 HD
ENDBRANCH  11  13
ENDBRANCH  10  11
ENDBRANCH   2   4
ENDBRANCH   1   2
BRANCH   1  15
ATOM     15  C   UNL     1      -1.327   1.221  -1.244  1.00  0.00     0.032 C 
BRANCH  15  16
ATOM     16  C   UNL     1      -1.887   2.315  -0.312  1.00  0.00     0.023 C 
BRANCH  16  17
ATOM     17  C   UNL     1      -0.804   3.173   0.361  1.00  0.00     0.116 C 
BRANCH  17  18
ATOM     18  N   UNL     1       0.047   3.836  -0.627  1.00  0.00    -0.357 N 
ATOM     19  C   UNL     1      -0.398   4.932  -1.439  1.00  0.00     0.185 C 
ATOM     20  H   UNL     1       1.040   3.524  -0.707  1.00  0.00     0.163 HD
ATOM     21  N   UNL     1       0.470   5.469  -2.439  1.00  0.00    -0.370 N 
ATOM     22  N   UNL     1      -1.578   5.440  -1.265  1.00  0.00    -0.270 NA
ATOM     23  H   UNL     1       0.169   6.270  -3.038  1.00  0.00     0.159 HD
ATOM     24  H   UNL     1       1.416   5.057  -2.595  1.00  0.00     0.159 HD
ATOM     25  H   UNL     1      -1.923   6.239  -1.843  1.00  0.00     0.191 HD
ENDBRANCH  17  18
ENDBRANCH  16  17
ENDBRANCH  15  16
ENDBRANCH   1  15
BRANCH   1  26
ATOM     26  N   UNL     1      -0.139  -0.976  -1.451  1.00  0.00    -0.199 NA
ATOM     27  H   UNL     1       0.289  -1.753  -0.898  1.00  0.00     0.142 HD
BRANCH  26  28
ATOM     28  S   UNL     1       1.027  -0.517  -2.667  1.00  0.00     0.243 S 
ATOM     29  O   UNL     1       1.663  -1.756  -3.232  1.00  0.00    -0.207 OA
ATOM     30  O   UNL     1       0.300   0.177  -3.786  1.00  0.00    -0.207 OA
BRANCH  28  31
ATOM     31  C   UNL     1       2.304   0.537  -2.026  1.00  0.00     0.105 A 
ATOM     32  C   UNL     1       2.487   1.804  -2.602  1.00  0.00     0.024 A 
ATOM     33  C   UNL     1       3.106   0.154  -0.923  1.00  0.00     0.058 A 
ATOM     34  C   UNL     1       3.440   2.685  -2.093  1.00  0.00     0.002 A 
ATOM     35  C   UNL     1       4.060   1.059  -0.404  1.00  0.00    -0.023 A 
ATOM     36  N   UNL     1       2.991  -1.151  -0.329  1.00  0.00    -0.383 N 
ATOM     37  C   UNL     1       4.211   2.323  -0.990  1.00  0.00     0.006 A 
ATOM     38  C   UNL     1       4.866   0.720   0.829  1.00  0.00     0.042 C 
ATOM     39  C   UNL     1       3.576  -1.436   0.976  1.00  0.00     0.116 C 
ATOM     40  H   UNL     1       2.593  -1.951  -0.867  1.00  0.00     0.160 HD
ATOM     41  C   UNL     1       4.969  -0.800   1.062  1.00  0.00     0.009 C 
ATOM     42  C   UNL     1       5.622  -1.100   2.415  1.00  0.00     0.010 C 
ENDBRANCH  28  31
ENDBRANCH  26  28
ENDBRANCH   1  26
TORSDOF 11
