REMARK SMILES CN1CCC[C@@H]1CCO[C@](C)(c1ccccc1)c1ccc(Cl)cc1
REMARK SMILES IDX 8 1 7 2 6 3 1 4 2 5 3 6 4 7 5 8 9 9 10 10 11 11 12 12 13 13
REMARK SMILES IDX 17 14 14 15 16 16 15 17 18 18 19 19 24 20 20 21 23 22 21 23
REMARK SMILES IDX 22 24
REMARK H PARENT
REMARK Flexibility Score: inf
ROOT
ATOM      1  C   UNL     1       0.849   0.609   0.040  1.00  0.00     0.163 C 
ENDROOT
BRANCH   1   2
ATOM      2  C   UNL     1       1.403   0.894  -1.367  1.00  0.00     0.047 C 
BRANCH   2   3
ATOM      3  C   UNL     1       2.941   0.779  -1.592  1.00  0.00     0.058 C 
ATOM      4  C   UNL     1       3.035  -1.613  -0.971  1.00  0.00     0.105 C 
ATOM      5  N   UNL     1       3.469  -0.563  -1.912  1.00  0.00    -0.303 NA
ATOM      6  C   UNL     1       4.930  -0.378  -1.825  1.00  0.00     0.084 C 
ATOM      7  C   UNL     1       5.214   0.757  -0.836  1.00  0.00     0.017 C 
ATOM      8  C   UNL     1       3.862   1.387  -0.534  1.00  0.00     0.020 C 
ENDBRANCH   2   3
ENDBRANCH   1   2
BRANCH   1   9
ATOM      9  O   UNL     1      -0.498   1.060   0.088  1.00  0.00    -0.366 OA
BRANCH   9  10
ATOM     10  C   UNL     1      -1.342   0.304   0.959  1.00  0.00     0.115 C 
ATOM     11  C   UNL     1      -0.737   0.230   2.392  1.00  0.00     0.053 C 
BRANCH  10  12
ATOM     12  C   UNL     1      -1.611  -1.072   0.323  1.00  0.00    -0.012 A 
ATOM     13  C   UNL     1      -1.872  -1.146  -1.063  1.00  0.00     0.007 A 
ATOM     14  C   UNL     1      -1.681  -2.262   1.081  1.00  0.00     0.007 A 
ATOM     15  C   UNL     1      -2.184  -2.364  -1.669  1.00  0.00     0.000 A 
ATOM     16  C   UNL     1      -1.972  -3.482   0.464  1.00  0.00     0.000 A 
ATOM     17  C   UNL     1      -2.228  -3.532  -0.908  1.00  0.00     0.000 A 
ENDBRANCH  10  12
BRANCH  10  18
ATOM     18  C   UNL     1      -2.679   1.047   1.086  1.00  0.00    -0.012 A 
ATOM     19  C   UNL     1      -3.799   0.413   1.673  1.00  0.00     0.008 A 
ATOM     20  C   UNL     1      -2.799   2.409   0.727  1.00  0.00     0.008 A 
ATOM     21  C   UNL     1      -5.000   1.103   1.864  1.00  0.00     0.021 A 
ATOM     22  C   UNL     1      -4.003   3.093   0.914  1.00  0.00     0.021 A 
ATOM     23  C   UNL     1      -5.104   2.443   1.483  1.00  0.00     0.041 A 
ATOM     24  Cl  UNL     1      -6.607   3.310   1.726  1.00  0.00    -0.084 Cl
ENDBRANCH  10  18
ENDBRANCH   9  10
ENDBRANCH   1   9
TORSDOF 6
