REMARK SMILES CN(CCOc1ccc(CC2SC(=O)NC2=O)cc1)c1ccccn1
REMARK SMILES IDX 4 1 3 2 2 3 1 4 20 5 21 6 25 7 22 8 24 9 23 10 5 11 6 12
REMARK SMILES IDX 7 13 19 14 8 15 18 16 9 17 10 18 11 19 12 20 16 21 13 22
REMARK SMILES IDX 15 23 17 24 14 25
REMARK H PARENT 15 26
REMARK Flexibility Score: inf
ROOT
ATOM      1  C   UNL     1      -1.954  -0.041  -2.086  1.00  0.00     0.251 C 
ENDROOT
BRANCH   1   2
ATOM      2  C   UNL     1      -2.737  -1.013  -1.199  1.00  0.00     0.159 C 
BRANCH   2   3
ATOM      3  N   UNL     1      -4.018  -0.417  -0.793  1.00  0.00    -0.356 N 
ATOM      4  C   UNL     1      -5.232  -0.756  -1.547  1.00  0.00     0.145 C 
BRANCH   3   5
ATOM      5  C   UNL     1      -4.063   0.511   0.320  1.00  0.00     0.128 A 
ATOM      6  C   UNL     1      -5.272   1.093   0.754  1.00  0.00     0.047 A 
ATOM      7  N   UNL     1      -2.910   0.835   0.975  1.00  0.00    -0.239 NA
ATOM      8  C   UNL     1      -5.263   1.981   1.831  1.00  0.00     0.005 A 
ATOM      9  C   UNL     1      -2.882   1.697   2.024  1.00  0.00     0.113 A 
ATOM     10  C   UNL     1      -4.063   2.288   2.472  1.00  0.00     0.020 A 
ENDBRANCH   3   5
ENDBRANCH   2   3
ENDBRANCH   1   2
BRANCH   1  11
ATOM     11  O   UNL     1      -0.718  -0.622  -2.502  1.00  0.00    -0.492 OA
BRANCH  11  12
ATOM     12  C   UNL     1       0.424  -0.774  -1.698  1.00  0.00     0.119 A 
ATOM     13  C   UNL     1       0.514  -0.249  -0.394  1.00  0.00     0.047 A 
ATOM     14  C   UNL     1       1.516  -1.469  -2.229  1.00  0.00     0.047 A 
ATOM     15  C   UNL     1       1.677  -0.431   0.360  1.00  0.00     0.007 A 
ATOM     16  C   UNL     1       2.680  -1.650  -1.476  1.00  0.00     0.007 A 
ATOM     17  C   UNL     1       2.766  -1.137  -0.173  1.00  0.00    -0.046 A 
BRANCH  17  18
ATOM     18  C   UNL     1       4.031  -1.313   0.628  1.00  0.00     0.060 C 
BRANCH  18  19
ATOM     19  C   UNL     1       5.115  -0.312   0.198  1.00  0.00     0.150 C 
ATOM     20  S   UNL     1       4.619   1.414   0.621  1.00  0.00    -0.051 SA
ATOM     21  C   UNL     1       6.405  -0.589   0.913  1.00  0.00     0.241 C 
ATOM     22  C   UNL     1       6.009   1.551   1.732  1.00  0.00     0.286 C 
ATOM     23  N   UNL     1       6.873   0.435   1.769  1.00  0.00    -0.286 N 
ATOM     24  O   UNL     1       7.047  -1.661   0.757  1.00  0.00    -0.273 OA
ATOM     25  O   UNL     1       6.207   2.569   2.445  1.00  0.00    -0.261 OA
ATOM     26  H   UNL     1       7.740   0.374   2.349  1.00  0.00     0.173 HD
ENDBRANCH  18  19
ENDBRANCH  17  18
ENDBRANCH  11  12
ENDBRANCH   1  11
TORSDOF 7
