REMARK SMILES NS(=O)(=O)c1cc2c(cc1Cl)N=C(CSCc1ccccc1)NS2(=O)=O
REMARK SMILES IDX 14 1 13 2 5 3 6 4 10 5 7 6 9 7 11 8 8 9 24 10 12 11 23 12
REMARK SMILES IDX 25 13 26 14 2 16 3 17 4 18 1 19 15 22 16 23 17 24 18 25
REMARK SMILES IDX 22 26 19 27 21 28 20 29
REMARK H PARENT 23 15 1 20 1 21
REMARK Flexibility Score: inf
ROOT
ATOM      1  C   UNL     1       1.561  -0.407   0.740  1.00  0.00     0.145 C 
ENDROOT
BRANCH   1   2
ATOM      2  C   UNL     1       0.236   0.104   0.271  1.00  0.00     0.126 C 
ATOM      3  C   UNL     1      -4.896   0.839   0.221  1.00  0.00     0.102 A 
ATOM      4  C   UNL     1      -3.899   1.246  -0.677  1.00  0.00     0.048 A 
ATOM      5  C   UNL     1      -4.532   0.086   1.357  1.00  0.00     0.063 A 
ATOM      6  C   UNL     1      -2.558   0.919  -0.446  1.00  0.00     0.114 A 
ATOM      7  C   UNL     1      -3.188  -0.235   1.580  1.00  0.00     0.051 A 
ATOM      8  Cl  UNL     1      -5.721  -0.484   2.524  1.00  0.00    -0.083 Cl
ATOM      9  C   UNL     1      -2.193   0.177   0.686  1.00  0.00     0.087 A 
ATOM     10  S   UNL     1      -1.328   1.430  -1.568  1.00  0.00     0.265 S 
ATOM     11  N   UNL     1      -0.829  -0.182   0.967  1.00  0.00    -0.233 NA
ATOM     12  N   UNL     1       0.169   0.837  -0.960  1.00  0.00    -0.266 N 
ATOM     13  O   UNL     1      -1.593   0.841  -2.925  1.00  0.00    -0.201 OA
ATOM     14  O   UNL     1      -1.287   2.930  -1.643  1.00  0.00    -0.201 OA
ATOM     15  H   UNL     1       1.038   1.018  -1.510  1.00  0.00     0.181 HD
BRANCH   3  16
ATOM     16  S   UNL     1      -6.582   1.264  -0.109  1.00  0.00     0.239 S 
ATOM     17  O   UNL     1      -7.223   1.820   1.132  1.00  0.00    -0.207 OA
ATOM     18  O   UNL     1      -6.646   2.311  -1.186  1.00  0.00    -0.207 OA
BRANCH  16  19
ATOM     19  N   UNL     1      -7.442  -0.139  -0.639  1.00  0.00    -0.225 NA
ATOM     20  H   UNL     1      -7.469  -0.809   0.162  1.00  0.00     0.137 HD
ATOM     21  H   UNL     1      -8.429   0.156  -0.815  1.00  0.00     0.137 HD
ENDBRANCH  16  19
ENDBRANCH   3  16
ENDBRANCH   1   2
BRANCH   1  22
ATOM     22  S   UNL     1       1.928  -1.983  -0.103  1.00  0.00    -0.149 SA
BRANCH  22  23
ATOM     23  C   UNL     1       3.514  -2.290   0.751  1.00  0.00     0.105 C 
BRANCH  23  24
ATOM     24  C   UNL     1       4.598  -1.404   0.201  1.00  0.00    -0.038 A 
ATOM     25  C   UNL     1       5.090  -0.324   0.955  1.00  0.00     0.004 A 
ATOM     26  C   UNL     1       5.114  -1.637  -1.084  1.00  0.00     0.004 A 
ATOM     27  C   UNL     1       6.085   0.506   0.430  1.00  0.00     0.000 A 
ATOM     28  C   UNL     1       6.110  -0.805  -1.605  1.00  0.00     0.000 A 
ATOM     29  C   UNL     1       6.595   0.265  -0.849  1.00  0.00     0.000 A 
ENDBRANCH  23  24
ENDBRANCH  22  23
ENDBRANCH   1  22
TORSDOF 6
