REMARK SMILES Nc1ccn([C@@H]2O[C@H](CO)[C@@H](O)C2(F)F)c(=O)n1
REMARK SMILES IDX 6 1 7 2 8 3 11 4 13 5 14 6 15 7 5 8 2 9 18 10 3 11 16 12
REMARK SMILES IDX 4 13 17 14 1 15 9 18 10 19 12 21
REMARK H PARENT 1 16 1 17 10 20 12 22
REMARK Flexibility Score: inf
ROOT
ATOM      1  C   UNL     1      -0.271  -1.015   0.038  1.00  0.00     0.297 C 
ATOM      2  O   UNL     1      -1.073  -0.560  -1.033  1.00  0.00    -0.343 OA
ATOM      3  C   UNL     1      -2.334  -0.242  -0.495  1.00  0.00     0.181 C 
ATOM      4  C   UNL     1      -2.122   0.206   0.945  1.00  0.00     0.220 C 
ATOM      5  C   UNL     1      -0.919  -0.605   1.370  1.00  0.00     0.320 C 
ATOM      6  F   UNL     1      -0.075   0.155   2.165  1.00  0.00    -0.198 F 
ATOM      7  F   UNL     1      -1.306  -1.737   2.074  1.00  0.00    -0.198 F 
ENDROOT
BRANCH   1   8
ATOM      8  N   UNL     1       1.106  -0.491  -0.091  1.00  0.00    -0.266 N 
ATOM      9  C   UNL     1       3.695   0.453  -0.273  1.00  0.00     0.130 A 
ATOM     10  N   UNL     1       2.637   1.275  -0.489  1.00  0.00    -0.176 NA
ATOM     11  C   UNL     1       3.470  -0.881   0.058  1.00  0.00     0.065 A 
ATOM     12  C   UNL     1       1.358   0.826  -0.397  1.00  0.00     0.351 A 
ATOM     13  C   UNL     1       2.156  -1.335   0.150  1.00  0.00     0.097 A 
ATOM     14  O   UNL     1       0.415   1.638  -0.591  1.00  0.00    -0.246 OA
BRANCH   9  15
ATOM     15  N   UNL     1       5.025   0.962  -0.380  1.00  0.00    -0.383 N 
ATOM     16  H   UNL     1       5.851   0.345  -0.215  1.00  0.00     0.158 HD
ATOM     17  H   UNL     1       5.186   1.964  -0.626  1.00  0.00     0.158 HD
ENDBRANCH   9  15
ENDBRANCH   1   8
BRANCH   3  18
ATOM     18  C   UNL     1      -3.003   0.841  -1.352  1.00  0.00     0.191 C 
BRANCH  18  19
ATOM     19  O   UNL     1      -4.271   1.163  -0.849  1.00  0.00    -0.394 OA
ATOM     20  H   UNL     1      -4.872   0.409  -1.088  1.00  0.00     0.210 HD
ENDBRANCH  18  19
ENDBRANCH   3  18
BRANCH   4  21
ATOM     21  O   UNL     1      -3.253  -0.077   1.728  1.00  0.00    -0.384 OA
ATOM     22  H   UNL     1      -3.113   0.381   2.598  1.00  0.00     0.211 HD
ENDBRANCH   4  21
TORSDOF 5
