REMARK SMILES Nc1ncnc2nc[nH]c12
REMARK SMILES IDX 2 1 10 2 9 3 8 4 7 5 6 6 5 7 4 8 3 9 1 11
REMARK H PARENT 9 10 1 12 1 13
REMARK Flexibility Score: inf
ROOT
ATOM      1  C   UNL     1      -1.022   0.386  -0.268  1.00  0.00     0.152 A 
ATOM      2  C   UNL     1       0.297   0.107   0.082  1.00  0.00     0.127 A 
ATOM      3  N   UNL     1       1.313   0.929   0.371  1.00  0.00    -0.340 N 
ATOM      4  C   UNL     1       2.344   0.086   0.633  1.00  0.00     0.199 A 
ATOM      5  N   UNL     1       2.018  -1.230   0.520  1.00  0.00    -0.217 NA
ATOM      6  C   UNL     1       0.722  -1.174   0.172  1.00  0.00     0.182 A 
ATOM      7  N   UNL     1      -0.096  -2.227  -0.069  1.00  0.00    -0.215 NA
ATOM      8  C   UNL     1      -1.394  -1.969  -0.413  1.00  0.00     0.226 A 
ATOM      9  N   UNL     1      -1.846  -0.677  -0.510  1.00  0.00    -0.217 NA
ATOM     10  H   UNL     1       1.323   1.972   0.394  1.00  0.00     0.168 HD
ENDROOT
BRANCH   1  11
ATOM     11  N   UNL     1      -1.514   1.722  -0.375  1.00  0.00    -0.382 N 
ATOM     12  H   UNL     1      -2.510   1.892  -0.640  1.00  0.00     0.158 HD
ATOM     13  H   UNL     1      -0.898   2.545  -0.193  1.00  0.00     0.158 HD
ENDBRANCH   1  11
TORSDOF 1
