REMARK SMILES C=CCC1(C(C)C#CCC)C(=O)NC(=O)N(C)C1=O
REMARK SMILES IDX 4 1 11 2 12 3 13 4 14 5 15 6 16 7 17 8 18 9 19 10 5 12 6 13
REMARK SMILES IDX 7 14 8 15 9 16 10 17 3 18 2 19 1 20
REMARK H PARENT 13 11
REMARK Flexibility Score: inf
ROOT
ATOM      1  C   UNL     1      -1.058   0.208  -0.472  1.00  0.00     0.145 C 
ATOM      2  C   UNL     1      -2.519   0.613  -0.273  1.00  0.00     0.245 C 
ATOM      3  O   UNL     1      -2.850   1.827  -0.209  1.00  0.00    -0.273 OA
ATOM      4  N   UNL     1      -3.522  -0.378  -0.053  1.00  0.00    -0.277 N 
ATOM      5  C   UNL     1      -3.283  -1.738  -0.400  1.00  0.00     0.330 C 
ATOM      6  O   UNL     1      -4.139  -2.615  -0.103  1.00  0.00    -0.248 OA
ATOM      7  N   UNL     1      -2.085  -2.090  -1.108  1.00  0.00    -0.266 N 
ATOM      8  C   UNL     1      -1.879  -3.466  -1.574  1.00  0.00     0.158 C 
ATOM      9  C   UNL     1      -1.037  -1.111  -1.259  1.00  0.00     0.247 C 
ATOM     10  O   UNL     1      -0.030  -1.397  -1.966  1.00  0.00    -0.273 OA
ATOM     11  H   UNL     1      -4.458  -0.096   0.314  1.00  0.00     0.174 HD
ENDROOT
BRANCH   1  12
ATOM     12  C   UNL     1      -0.391  -0.089   0.926  1.00  0.00     0.086 C 
ATOM     13  C   UNL     1      -0.674   0.935   2.041  1.00  0.00     0.023 C 
BRANCH  12  14
ATOM     14  C   UNL     1       1.065  -0.292   0.809  1.00  0.00    -0.099 C 
ATOM     15  C   UNL     1       2.255  -0.454   0.712  1.00  0.00    -0.103 C 
BRANCH  15  16
ATOM     16  C   UNL     1       3.703  -0.646   0.591  1.00  0.00     0.086 C 
ATOM     17  C   UNL     1       4.450   0.547   1.174  1.00  0.00     0.018 C 
ENDBRANCH  15  16
ENDBRANCH  12  14
ENDBRANCH   1  12
BRANCH   1  18
ATOM     18  C   UNL     1      -0.297   1.292  -1.325  1.00  0.00     0.055 C 
BRANCH  18  19
ATOM     19  C   UNL     1      -0.058   2.621  -0.647  1.00  0.00    -0.033 C 
ATOM     20  C   UNL     1       1.171   3.035  -0.319  1.00  0.00     0.004 C 
ENDBRANCH  18  19
ENDBRANCH   1  18
TORSDOF 5
