REMARK SMILES Clc1ccc(CO/N=C(\Cn2ccnc2)c2ccc(Cl)cc2Cl)c(Cl)c1
REMARK SMILES IDX 8 1 9 2 7 3 6 4 5 5 1 6 2 7 26 8 3 9 24 10 4 11 25 12 10 13
REMARK SMILES IDX 11 14 12 15 15 16 13 17 14 18 16 19 17 20 22 21 18 22 21 23
REMARK SMILES IDX 23 24 19 25 20 26
REMARK H PARENT
REMARK Flexibility Score: inf
ROOT
ATOM      1  N   UNL     1      -0.630  -0.561   1.397  1.00  0.00    -0.089 NA
ATOM      2  C   UNL     1      -1.591  -0.514   0.526  1.00  0.00     0.108 C 
ENDROOT
BRANCH   1   3
ATOM      3  O   UNL     1      -0.268   0.538   2.145  1.00  0.00    -0.391 OA
BRANCH   3   4
ATOM      4  C   UNL     1       0.985   0.575   2.811  1.00  0.00     0.301 C 
BRANCH   4   5
ATOM      5  C   UNL     1       2.080   0.778   1.796  1.00  0.00     0.011 A 
ATOM      6  Cl  UNL     1       5.157   1.520  -1.494  1.00  0.00    -0.084 Cl
ATOM      7  C   UNL     1       3.978   1.234  -0.228  1.00  0.00     0.042 A 
ATOM      8  C   UNL     1       3.665  -0.073   0.155  1.00  0.00     0.041 A 
ATOM      9  C   UNL     1       3.343   2.312   0.392  1.00  0.00     0.021 A 
ATOM     10  C   UNL     1       2.716  -0.311   1.157  1.00  0.00     0.049 A 
ATOM     11  C   UNL     1       2.397   2.086   1.394  1.00  0.00     0.010 A 
ATOM     12  Cl  UNL     1       2.348  -1.982   1.571  1.00  0.00    -0.084 Cl
ENDBRANCH   4   5
ENDBRANCH   3   4
ENDBRANCH   1   3
BRANCH   2  13
ATOM     13  C   UNL     1      -2.263   0.796   0.194  1.00  0.00     0.183 C 
BRANCH  13  14
ATOM     14  N   UNL     1      -1.296   1.723  -0.392  1.00  0.00    -0.331 N 
ATOM     15  C   UNL     1      -0.608   1.559  -1.534  1.00  0.00     0.107 A 
ATOM     16  C   UNL     1      -0.892   2.904   0.113  1.00  0.00     0.199 A 
ATOM     17  C   UNL     1       0.208   2.656  -1.695  1.00  0.00     0.130 A 
ATOM     18  N   UNL     1       0.033   3.507  -0.663  1.00  0.00    -0.245 NA
ENDBRANCH  13  14
ENDBRANCH   2  13
BRANCH   2  19
ATOM     19  C   UNL     1      -1.874  -1.717  -0.280  1.00  0.00     0.020 A 
ATOM     20  C   UNL     1      -0.819  -2.335  -0.974  1.00  0.00     0.013 A 
ATOM     21  C   UNL     1      -3.172  -2.265  -0.367  1.00  0.00     0.051 A 
ATOM     22  C   UNL     1      -1.054  -3.466  -1.759  1.00  0.00     0.021 A 
ATOM     23  C   UNL     1      -3.397  -3.400  -1.156  1.00  0.00     0.041 A 
ATOM     24  Cl  UNL     1      -4.522  -1.604   0.550  1.00  0.00    -0.084 Cl
ATOM     25  C   UNL     1      -2.343  -3.997  -1.854  1.00  0.00     0.042 A 
ATOM     26  Cl  UNL     1      -2.636  -5.419  -2.839  1.00  0.00    -0.084 Cl
ENDBRANCH   2  19
TORSDOF 6
