REMARK SMILES CN(C)CCCN1c2ccccc2Sc2ccccc21
REMARK SMILES IDX 5 1 4 2 2 3 1 4 3 5 6 6 7 7 8 8 20 9 9 10 13 11 15 12 19 13
REMARK SMILES IDX 10 14 12 15 14 16 16 17 18 18 11 19 17 20
REMARK H PARENT
REMARK Flexibility Score: inf
ROOT
ATOM      1  C   UNL     1       1.562   0.862   0.583  1.00  0.00     0.037 C 
ENDROOT
BRANCH   1   2
ATOM      2  C   UNL     1       2.996   0.557   0.126  1.00  0.00     0.085 C 
BRANCH   2   3
ATOM      3  N   UNL     1       3.093  -0.818  -0.415  1.00  0.00    -0.309 NA
ATOM      4  C   UNL     1       4.112  -0.888  -1.474  1.00  0.00     0.104 C 
ATOM      5  C   UNL     1       3.421  -1.783   0.649  1.00  0.00     0.104 C 
ENDBRANCH   2   3
ENDBRANCH   1   2
BRANCH   1   6
ATOM      6  C   UNL     1       0.588   0.973  -0.607  1.00  0.00     0.124 C 
BRANCH   6   7
ATOM      7  N   UNL     1      -0.786   0.595  -0.240  1.00  0.00    -0.340 N 
ATOM      8  C   UNL     1      -1.275  -0.738  -0.514  1.00  0.00     0.055 A 
ATOM      9  C   UNL     1      -1.738   1.578   0.231  1.00  0.00     0.055 A 
ATOM     10  C   UNL     1      -0.523  -1.876  -0.174  1.00  0.00     0.027 A 
ATOM     11  C   UNL     1      -2.578  -0.907  -1.022  1.00  0.00     0.036 A 
ATOM     12  C   UNL     1      -3.063   1.540  -0.247  1.00  0.00     0.036 A 
ATOM     13  C   UNL     1      -1.416   2.470   1.269  1.00  0.00     0.027 A 
ATOM     14  C   UNL     1      -1.078  -3.153  -0.303  1.00  0.00     0.002 A 
ATOM     15  C   UNL     1      -3.137  -2.185  -1.127  1.00  0.00     0.017 A 
ATOM     16  S   UNL     1      -3.465   0.514  -1.662  1.00  0.00    -0.086 SA
ATOM     17  C   UNL     1      -4.048   2.353   0.324  1.00  0.00     0.017 A 
ATOM     18  C   UNL     1      -2.399   3.299   1.820  1.00  0.00     0.002 A 
ATOM     19  C   UNL     1      -2.387  -3.307  -0.765  1.00  0.00     0.001 A 
ATOM     20  C   UNL     1      -3.714   3.234   1.354  1.00  0.00     0.001 A 
ENDBRANCH   6   7
ENDBRANCH   1   6
TORSDOF 4
