REMARK SMILES CCN1CC(CCN2CCOCC2)C(c2ccccc2)(c2ccccc2)C1=O
REMARK SMILES IDX 6 1 5 2 3 3 4 4 27 5 14 6 28 7 2 8 1 9 15 10 16 11 20 12
REMARK SMILES IDX 17 13 19 14 18 15 21 16 22 17 26 18 23 19 25 20 24 21 7 22
REMARK SMILES IDX 8 23 9 24 13 25 10 26 12 27 11 28
REMARK H PARENT
REMARK Flexibility Score: inf
ROOT
ATOM      1  C   UNL     1       0.626  -0.771  -1.021  1.00  0.00     0.023 C 
ENDROOT
BRANCH   1   2
ATOM      2  C   UNL     1       0.015   0.038   0.158  1.00  0.00     0.034 C 
ATOM      3  N   UNL     1      -0.737   2.245   0.668  1.00  0.00    -0.342 N 
ATOM      4  C   UNL     1       0.413   1.533   0.145  1.00  0.00     0.125 C 
ATOM      5  C   UNL     1      -1.860   1.385   0.726  1.00  0.00     0.238 C 
ATOM      6  C   UNL     1      -1.557  -0.021   0.309  1.00  0.00     0.104 C 
ATOM      7  O   UNL     1      -3.018   1.797   1.013  1.00  0.00    -0.273 OA
BRANCH   3   8
ATOM      8  C   UNL     1      -0.774   3.689   0.892  1.00  0.00     0.116 C 
ATOM      9  C   UNL     1      -0.903   3.989   2.381  1.00  0.00     0.027 C 
ENDBRANCH   3   8
BRANCH   6  10
ATOM     10  C   UNL     1      -1.889  -1.054   1.411  1.00  0.00    -0.028 A 
ATOM     11  C   UNL     1      -1.732  -2.432   1.140  1.00  0.00     0.005 A 
ATOM     12  C   UNL     1      -2.222  -0.675   2.734  1.00  0.00     0.005 A 
ATOM     13  C   UNL     1      -1.961  -3.391   2.130  1.00  0.00     0.000 A 
ATOM     14  C   UNL     1      -2.448  -1.640   3.719  1.00  0.00     0.000 A 
ATOM     15  C   UNL     1      -2.323  -2.996   3.417  1.00  0.00     0.000 A 
ENDBRANCH   6  10
BRANCH   6  16
ATOM     16  C   UNL     1      -2.340  -0.252  -1.005  1.00  0.00    -0.028 A 
ATOM     17  C   UNL     1      -2.025   0.493  -2.165  1.00  0.00     0.005 A 
ATOM     18  C   UNL     1      -3.499  -1.065  -1.050  1.00  0.00     0.005 A 
ATOM     19  C   UNL     1      -2.756   0.338  -3.345  1.00  0.00     0.000 A 
ATOM     20  C   UNL     1      -4.227  -1.217  -2.233  1.00  0.00     0.000 A 
ATOM     21  C   UNL     1      -3.848  -0.527  -3.383  1.00  0.00     0.000 A 
ENDBRANCH   6  16
ENDBRANCH   1   2
BRANCH   1  22
ATOM     22  C   UNL     1       2.089  -1.170  -0.771  1.00  0.00     0.085 C 
BRANCH  22  23
ATOM     23  N   UNL     1       2.951   0.030  -0.663  1.00  0.00    -0.299 NA
ATOM     24  C   UNL     1       3.446   0.497  -1.979  1.00  0.00     0.113 C 
ATOM     25  C   UNL     1       4.067  -0.168   0.281  1.00  0.00     0.113 C 
ATOM     26  C   UNL     1       4.821  -0.102  -2.338  1.00  0.00     0.175 C 
ATOM     27  C   UNL     1       5.130  -1.139  -0.287  1.00  0.00     0.175 C 
ATOM     28  O   UNL     1       5.010  -1.339  -1.685  1.00  0.00    -0.379 OA
ENDBRANCH  22  23
ENDBRANCH   1  22
TORSDOF 6
