REMARK SMILES CC(=O)OCC(=O)[C@@]12OC3(CCCC3)O[C@@H]1C[C@H]1[C@@H]3CCC4=CC(=O)C=C[C@]4(C)[C@@]3(F)[C@@H](O)C[C@@]12C
REMARK SMILES IDX 5 1 6 2 7 3 8 4 18 5 17 6 35 7 19 8 16 9 36 10 34 11 30 12
REMARK SMILES IDX 20 13 15 14 9 15 32 16 31 17 28 18 21 19 10 20 22 21 27 22
REMARK SMILES IDX 29 23 11 24 14 25 23 26 26 27 12 28 13 29 24 30 25 31 33 32
REMARK SMILES IDX 4 34 2 35 1 36 3 37
REMARK H PARENT 33 33
REMARK Flexibility Score: inf
ROOT
ATOM      1  C   UNL     1      -2.850  -2.249  -2.454  1.00  0.00     0.311 C 
ENDROOT
BRANCH   1   2
ATOM      2  C   UNL     1      -2.106  -2.623  -1.200  1.00  0.00     0.205 C 
ATOM      3  O   UNL     1      -1.953  -3.810  -0.950  1.00  0.00    -0.292 OA
BRANCH   2   4
ATOM      4  C   UNL     1      -1.591  -1.559  -0.223  1.00  0.00     0.165 C 
ATOM      5  C   UNL     1       0.189  -0.620   1.054  1.00  0.00     0.008 C 
ATOM      6  C   UNL     1      -0.593  -1.473   2.043  1.00  0.00     0.040 C 
ATOM      7  C   UNL     1      -0.048  -1.300  -0.300  1.00  0.00     0.012 C 
ATOM      8  C   UNL     1       1.675  -0.294   1.331  1.00  0.00     0.035 C 
ATOM      9  C   UNL     1      -1.840  -1.916   1.245  1.00  0.00     0.162 C 
ATOM     10  C   UNL     1       0.711  -2.663  -0.440  1.00  0.00     0.015 C 
ATOM     11  C   UNL     1       0.410  -0.317  -1.411  1.00  0.00     0.045 C 
ATOM     12  C   UNL     1       2.186   0.697   0.216  1.00  0.00     0.152 C 
ATOM     13  C   UNL     1       1.834   0.329   2.736  1.00  0.00     0.012 C 
ATOM     14  O   UNL     1      -2.957  -1.189   1.656  1.00  0.00    -0.343 OA
ATOM     15  O   UNL     1      -2.300  -0.368  -0.432  1.00  0.00    -0.332 OA
ATOM     16  C   UNL     1       1.884   0.152  -1.230  1.00  0.00     0.154 C 
ATOM     17  F   UNL     1       1.433   1.862   0.333  1.00  0.00    -0.239 F 
ATOM     18  C   UNL     1       3.690   1.132   0.465  1.00  0.00     0.044 C 
ATOM     19  C   UNL     1       3.282   0.731   3.012  1.00  0.00     0.032 C 
ATOM     20  C   UNL     1      -3.209  -0.240   0.642  1.00  0.00     0.170 C 
ATOM     21  C   UNL     1       3.779   1.638   1.915  1.00  0.00    -0.053 C 
ATOM     22  C   UNL     1       4.085   2.205  -0.553  1.00  0.00    -0.009 C 
ATOM     23  C   UNL     1       4.719  -0.017   0.312  1.00  0.00     0.024 C 
ATOM     24  C   UNL     1      -3.145   1.167   1.229  1.00  0.00     0.066 C 
ATOM     25  C   UNL     1      -4.644  -0.381   0.153  1.00  0.00     0.066 C 
ATOM     26  C   UNL     1       4.275   2.846   2.230  1.00  0.00     0.052 C 
ATOM     27  C   UNL     1       4.566   3.401  -0.215  1.00  0.00     0.048 C 
ATOM     28  C   UNL     1      -4.553   1.488   1.720  1.00  0.00     0.006 C 
ATOM     29  C   UNL     1      -5.485   0.438   1.120  1.00  0.00     0.006 C 
ATOM     30  C   UNL     1       4.705   3.777   1.189  1.00  0.00     0.178 C 
ATOM     31  O   UNL     1       5.180   4.901   1.499  1.00  0.00    -0.290 OA
BRANCH  16  32
ATOM     32  O   UNL     1       2.764  -0.880  -1.587  1.00  0.00    -0.390 OA
ATOM     33  H   UNL     1       2.739  -0.956  -2.577  1.00  0.00     0.211 HD
ENDBRANCH  16  32
ENDBRANCH   2   4
ENDBRANCH   1   2
BRANCH   1  34
ATOM     34  O   UNL     1      -2.163  -1.205  -3.134  1.00  0.00    -0.458 OA
BRANCH  34  35
ATOM     35  C   UNL     1      -2.638  -0.625  -4.312  1.00  0.00     0.303 C 
ATOM     36  C   UNL     1      -1.877   0.493  -4.937  1.00  0.00     0.139 C 
ATOM     37  O   UNL     1      -3.720  -1.013  -4.831  1.00  0.00    -0.253 OA
ENDBRANCH  34  35
ENDBRANCH   1  34
TORSDOF 5
