REMARK SMILES CSc1ccc2c(c1)N(CCC1CCCCN1C)c1ccccc1S2
REMARK SMILES IDX 10 1 9 2 3 3 8 4 4 5 7 6 5 7 6 8 25 9 19 10 24 11 20 12
REMARK SMILES IDX 23 13 21 14 22 15 2 16 1 17 11 18 12 19 13 20 17 21 14 22
REMARK SMILES IDX 16 23 18 24 15 25
REMARK H PARENT
REMARK Flexibility Score: inf
ROOT
ATOM      1  C   UNL     1      -0.268   0.661  -1.272  1.00  0.00     0.124 C 
ENDROOT
BRANCH   1   2
ATOM      2  N   UNL     1       0.749  -0.243  -0.707  1.00  0.00    -0.340 N 
ATOM      3  C   UNL     1       3.443   1.872   0.838  1.00  0.00     0.009 A 
ATOM      4  C   UNL     1       2.374   1.486   0.021  1.00  0.00     0.042 A 
ATOM      5  C   UNL     1       3.899   1.015   1.846  1.00  0.00     0.016 A 
ATOM      6  C   UNL     1       1.745   0.244   0.217  1.00  0.00     0.056 A 
ATOM      7  C   UNL     1       3.285  -0.224   2.043  1.00  0.00     0.019 A 
ATOM      8  C   UNL     1       2.204  -0.604   1.242  1.00  0.00     0.036 A 
ATOM      9  S   UNL     1       1.338  -2.144   1.564  1.00  0.00    -0.086 SA
ATOM     10  C   UNL     1       0.852  -1.625  -1.116  1.00  0.00     0.055 A 
ATOM     11  C   UNL     1       1.260  -2.589  -0.174  1.00  0.00     0.036 A 
ATOM     12  C   UNL     1       0.700  -2.002  -2.462  1.00  0.00     0.027 A 
ATOM     13  C   UNL     1       1.539  -3.899  -0.579  1.00  0.00     0.017 A 
ATOM     14  C   UNL     1       0.956  -3.319  -2.857  1.00  0.00     0.002 A 
ATOM     15  C   UNL     1       1.383  -4.263  -1.919  1.00  0.00     0.001 A 
BRANCH   3  16
ATOM     16  S   UNL     1       4.240   3.458   0.582  1.00  0.00    -0.130 SA
ATOM     17  C   UNL     1       5.447   2.797  -0.608  1.00  0.00     0.091 C 
ENDBRANCH   3  16
ENDBRANCH   1   2
BRANCH   1  18
ATOM     18  C   UNL     1      -1.689   0.088  -1.130  1.00  0.00     0.041 C 
BRANCH  18  19
ATOM     19  C   UNL     1      -2.118  -0.104   0.342  1.00  0.00     0.058 C 
ATOM     20  C   UNL     1      -3.423  -0.930   0.428  1.00  0.00     0.019 C 
ATOM     21  N   UNL     1      -2.229   1.228   1.010  1.00  0.00    -0.303 NA
ATOM     22  C   UNL     1      -4.642  -0.155  -0.094  1.00  0.00     0.003 C 
ATOM     23  C   UNL     1      -3.604   1.628   1.387  1.00  0.00     0.084 C 
ATOM     24  C   UNL     1      -1.345   1.323   2.183  1.00  0.00     0.105 C 
ATOM     25  C   UNL     1      -4.593   1.343   0.255  1.00  0.00     0.016 C 
ENDBRANCH  18  19
ENDBRANCH   1  18
TORSDOF 4
