REMARK SMILES CC(=O)[C@H]1CC[C@H]2[C@@H]3CCC4=CC(=O)CC[C@]4(C)[C@H]3CC[C@]12C
REMARK SMILES IDX 7 1 6 2 5 3 4 4 22 5 23 6 21 7 20 8 19 9 8 10 9 11 10 12
REMARK SMILES IDX 11 13 12 14 13 15 14 16 15 17 16 18 17 19 18 20 2 21 1 22
REMARK SMILES IDX 3 23
REMARK H PARENT
REMARK Flexibility Score: inf
ROOT
ATOM      1  C   UNL     1       1.195   0.143   0.799  1.00  0.00    -0.001 C 
ATOM      2  C   UNL     1       2.187   1.070   1.492  1.00  0.00     0.005 C 
ATOM      3  C   UNL     1       3.554   0.391   1.283  1.00  0.00     0.012 C 
ATOM      4  C   UNL     1       3.306  -0.814   0.338  1.00  0.00     0.062 C 
ATOM      5  C   UNL     1       1.978  -0.465  -0.373  1.00  0.00    -0.020 C 
ATOM      6  C   UNL     1       2.248   0.542  -1.540  1.00  0.00     0.012 C 
ATOM      7  C   UNL     1       1.177  -1.680  -0.891  1.00  0.00     0.008 C 
ATOM      8  C   UNL     1      -0.253  -1.271  -1.318  1.00  0.00     0.005 C 
ATOM      9  C   UNL     1      -1.029  -0.480  -0.214  1.00  0.00     0.002 C 
ATOM     10  C   UNL     1      -0.181   0.698   0.376  1.00  0.00    -0.003 C 
ATOM     11  C   UNL     1      -0.916   1.312   1.580  1.00  0.00     0.008 C 
ATOM     12  C   UNL     1      -2.278   1.859   1.164  1.00  0.00     0.032 C 
ATOM     13  C   UNL     1      -3.108   0.795   0.483  1.00  0.00    -0.060 C 
ATOM     14  C   UNL     1      -4.425   0.741   0.753  1.00  0.00     0.047 C 
ATOM     15  C   UNL     1      -5.331  -0.169   0.040  1.00  0.00     0.155 C 
ATOM     16  O   UNL     1      -6.551  -0.205   0.352  1.00  0.00    -0.295 OA
ATOM     17  C   UNL     1      -4.832  -1.002  -1.095  1.00  0.00     0.081 C 
ATOM     18  C   UNL     1      -3.341  -1.306  -0.925  1.00  0.00     0.019 C 
ATOM     19  C   UNL     1      -2.478  -0.030  -0.651  1.00  0.00    -0.008 C 
ATOM     20  C   UNL     1      -2.447   0.850  -1.927  1.00  0.00     0.016 C 
ENDROOT
BRANCH   4  21
ATOM     21  C   UNL     1       4.451  -1.184  -0.594  1.00  0.00     0.133 C 
ATOM     22  C   UNL     1       5.708  -0.370  -0.708  1.00  0.00     0.088 C 
ATOM     23  O   UNL     1       4.350  -2.197  -1.271  1.00  0.00    -0.300 OA
ENDBRANCH   4  21
TORSDOF 1
