REMARK SMILES CN1C(=O)C(O)N=C(c2ccccc2)c2cc(Cl)ccc21
REMARK SMILES IDX 21 1 15 2 16 3 17 4 18 5 19 6 20 7 2 8 1 9 3 10 4 11 8 13
REMARK SMILES IDX 7 14 9 15 10 16 14 17 11 18 13 19 12 20 5 21 6 23
REMARK H PARENT 6 24
REMARK Flexibility Score: 80.00
ROOT
ATOM      1  C   UNL     1      -1.823   0.238  -0.251  1.00  0.00     0.053 A 
ATOM      2  C   UNL     1      -0.535   0.707   0.115  1.00  0.00     0.026 A 
ATOM      3  C   UNL     1      -0.251   2.082   0.018  1.00  0.00     0.033 A 
ATOM      4  C   UNL     1      -1.216   2.979  -0.444  1.00  0.00     0.041 A 
ATOM      5  Cl  UNL     1      -0.839   4.689  -0.561  1.00  0.00    -0.084 Cl
ATOM      6  C   UNL     1      -2.479   2.517  -0.810  1.00  0.00     0.023 A 
ATOM      7  C   UNL     1      -2.782   1.158  -0.714  1.00  0.00     0.028 A 
ENDROOT
BRANCH   1   8
ATOM      8  N   UNL     1      -2.168  -1.162  -0.166  1.00  0.00    -0.311 N 
ATOM      9  C   UNL     1      -2.917  -1.792  -1.258  1.00  0.00     0.153 C 
BRANCH   8  10
ATOM     10  C   UNL     1      -1.952  -1.897   1.055  1.00  0.00     0.278 CG0
ATOM     11  O   UNL     1      -2.539  -2.999   1.240  1.00  0.00    -0.269 OA
ATOM     12  G   UNL     1      -1.023  -1.364   2.108  1.00  0.00     0.000 G0
ENDBRANCH   8  10
ENDBRANCH   1   8
BRANCH   2  13
ATOM     13  C   UNL     1       0.533  -0.215   0.598  1.00  0.00     0.078 C 
ATOM     14  N   UNL     1       0.283  -1.119   1.503  1.00  0.00    -0.243 NA
BRANCH  13  15
ATOM     15  C   UNL     1       1.921  -0.098   0.079  1.00  0.00     0.000 A 
ATOM     16  C   UNL     1       2.164   0.363  -1.230  1.00  0.00     0.010 A 
ATOM     17  C   UNL     1       3.016  -0.473   0.880  1.00  0.00     0.010 A 
ATOM     18  C   UNL     1       3.472   0.462  -1.715  1.00  0.00     0.001 A 
ATOM     19  C   UNL     1       4.322  -0.372   0.390  1.00  0.00     0.001 A 
ATOM     20  C   UNL     1       4.549   0.097  -0.905  1.00  0.00     0.000 A 
ENDBRANCH  13  15
BRANCH  14  21
ATOM     21  C   UNL     1      -1.023  -1.364   2.108  1.00  0.00     0.323 CG0
ATOM     22  G   UNL     1      -1.952  -1.897   1.055  1.00  0.00     0.000 G0
BRANCH  21  23
ATOM     23  O   UNL     1      -0.884  -2.296   3.147  1.00  0.00    -0.364 OA
ATOM     24  H   UNL     1      -0.382  -1.838   3.871  1.00  0.00     0.213 HD
ENDBRANCH  21  23
ENDBRANCH  14  21
ENDBRANCH   2  13
TORSDOF 2
