REMARK SMILES Cc1nnc2n1-c1ccc(Cl)cc1C(c1ccccc1)=NC2
REMARK SMILES IDX 1 1 2 2 3 3 4 4 5 5 22 6 21 7 14 8 13 9 7 10 8 11 9 12 10 13
REMARK SMILES IDX 11 14 12 15 6 16 15 17 16 18 20 19 17 20 19 21 18 22
REMARK H PARENT
REMARK Flexibility Score: inf
ROOT
ATOM      1  C   UNL     1       3.223   1.924  -1.723  1.00  0.00     0.090 C 
ATOM      2  C   UNL     1       2.588   2.159  -0.389  1.00  0.00     0.134 A 
ATOM      3  N   UNL     1       2.618   3.352   0.239  1.00  0.00    -0.135 NA
ATOM      4  N   UNL     1       1.929   3.219   1.363  1.00  0.00    -0.133 NA
ATOM      5  C   UNL     1       1.501   1.944   1.406  1.00  0.00     0.159 A 
ATOM      6  C   UNL     1       0.602   1.385   2.453  1.00  0.00     0.220 C 
ATOM      7  N   UNL     1      -0.650   0.983   1.824  1.00  0.00    -0.276 NA
ATOM      8  C   UNL     1      -0.786   0.073   0.898  1.00  0.00     0.075 C 
ATOM      9  C   UNL     1       0.376  -0.729   0.390  1.00  0.00     0.026 A 
ATOM     10  C   UNL     1       1.634  -0.147   0.074  1.00  0.00     0.058 A 
ATOM     11  C   UNL     1       2.668  -0.966  -0.413  1.00  0.00     0.029 A 
ATOM     12  C   UNL     1       2.464  -2.331  -0.614  1.00  0.00     0.023 A 
ATOM     13  C   UNL     1       1.230  -2.904  -0.312  1.00  0.00     0.041 A 
ATOM     14  Cl  UNL     1       0.980  -4.624  -0.553  1.00  0.00    -0.084 Cl
ATOM     15  C   UNL     1       0.197  -2.112   0.193  1.00  0.00     0.033 A 
ATOM     16  N   UNL     1       1.893   1.247   0.328  1.00  0.00    -0.281 N 
ENDROOT
BRANCH   8  17
ATOM     17  C   UNL     1      -2.150  -0.175   0.361  1.00  0.00     0.000 A 
ATOM     18  C   UNL     1      -2.337  -0.558  -0.981  1.00  0.00     0.010 A 
ATOM     19  C   UNL     1      -3.280   0.000   1.182  1.00  0.00     0.010 A 
ATOM     20  C   UNL     1      -3.623  -0.778  -1.482  1.00  0.00     0.001 A 
ATOM     21  C   UNL     1      -4.565  -0.222   0.676  1.00  0.00     0.001 A 
ATOM     22  C   UNL     1      -4.736  -0.612  -0.654  1.00  0.00     0.000 A 
ENDBRANCH   8  17
TORSDOF 1
