REMARK SMILES CN1CCC[C@H]1c1cccnc1
REMARK SMILES IDX 1 1 2 2 3 3 4 4 5 5 6 6 7 7 12 8 8 9 11 10 9 11 10 12
REMARK H PARENT
REMARK Flexibility Score: inf
ROOT
ATOM      1  C   UNL     1      -1.109   1.663   0.363  1.00  0.00     0.106 C 
ATOM      2  N   UNL     1      -1.244   0.286   0.876  1.00  0.00    -0.299 NA
ATOM      3  C   UNL     1      -2.585  -0.237   0.565  1.00  0.00     0.085 C 
ATOM      4  C   UNL     1      -2.500  -1.027  -0.742  1.00  0.00     0.017 C 
ATOM      5  C   UNL     1      -1.017  -1.179  -1.039  1.00  0.00     0.025 C 
ATOM      6  C   UNL     1      -0.331  -0.678   0.230  1.00  0.00     0.088 C 
ENDROOT
BRANCH   6   7
ATOM      7  C   UNL     1       1.109  -0.191   0.073  1.00  0.00    -0.012 A 
ATOM      8  C   UNL     1       1.542   0.583  -1.024  1.00  0.00     0.116 A 
ATOM      9  C   UNL     1       2.041  -0.472   1.088  1.00  0.00     0.008 A 
ATOM     10  N   UNL     1       2.831   1.011  -1.097  1.00  0.00    -0.264 NA
ATOM     11  C   UNL     1       3.358  -0.023   0.984  1.00  0.00     0.020 A 
ATOM     12  C   UNL     1       3.740   0.722  -0.130  1.00  0.00     0.111 A 
ENDBRANCH   6   7
TORSDOF 1
