REMARK SMILES Cc1[nH]c(=O)c(C#N)cc1-c1ccncc1
REMARK SMILES IDX 1 1 2 2 10 3 9 4 6 5 4 6 5 7 3 8 11 10 12 11 16 12 13 13
REMARK SMILES IDX 15 14 14 15 7 16 8 17
REMARK H PARENT 3 9
REMARK Flexibility Score: inf
ROOT
ATOM      1  C   UNL     1       0.384  -2.057  -1.186  1.00  0.00     0.065 C 
ATOM      2  C   UNL     1       1.039  -0.983  -0.358  1.00  0.00     0.023 A 
ATOM      3  C   UNL     1       0.306   0.124   0.134  1.00  0.00     0.002 A 
ATOM      4  C   UNL     1       0.983   1.109   0.865  1.00  0.00     0.035 A 
ATOM      5  C   UNL     1       2.348   0.981   1.130  1.00  0.00     0.118 A 
ATOM      6  C   UNL     1       3.033  -0.145   0.654  1.00  0.00     0.266 A 
ATOM      7  O   UNL     1       4.264  -0.288   0.888  1.00  0.00    -0.268 OA
ATOM      8  N   UNL     1       2.370  -1.091  -0.068  1.00  0.00    -0.325 N 
ATOM      9  H   UNL     1       2.906  -1.920  -0.413  1.00  0.00     0.169 HD
ENDROOT
BRANCH   3  10
ATOM     10  C   UNL     1      -1.147   0.281  -0.103  1.00  0.00    -0.014 A 
ATOM     11  C   UNL     1      -2.056  -0.682   0.362  1.00  0.00     0.029 A 
ATOM     12  C   UNL     1      -1.635   1.417  -0.766  1.00  0.00     0.029 A 
ATOM     13  C   UNL     1      -3.423  -0.502   0.137  1.00  0.00     0.111 A 
ATOM     14  C   UNL     1      -3.010   1.557  -0.969  1.00  0.00     0.111 A 
ATOM     15  N   UNL     1      -3.867   0.602  -0.519  1.00  0.00    -0.265 NA
ENDBRANCH   3  10
BRANCH   5  16
ATOM     16  C   UNL     1       3.027   2.000   1.892  1.00  0.00     0.105 C 
ATOM     17  N   UNL     1       3.571   2.818   2.504  1.00  0.00    -0.192 NA
ENDBRANCH   5  16
TORSDOF 2
