REMARK SMILES OC1(c2ccc(Cl)cc2)c2ccccc2C2=NCCN21
REMARK SMILES IDX 2 1 20 2 19 3 18 4 17 5 16 6 15 7 14 8 13 9 12 10 11 11
REMARK SMILES IDX 10 12 1 13 3 15 4 16 9 17 5 18 8 19 6 20 7 21
REMARK H PARENT 1 14
REMARK Flexibility Score: inf
ROOT
ATOM      1  C   UNL     1       0.059  -0.397  -0.625  1.00  0.00     0.193 C 
ATOM      2  N   UNL     1      -0.635  -1.336   0.276  1.00  0.00    -0.319 N 
ATOM      3  C   UNL     1      -0.952  -2.744   0.112  1.00  0.00     0.145 C 
ATOM      4  C   UNL     1      -2.356  -2.866   0.745  1.00  0.00     0.166 C 
ATOM      5  N   UNL     1      -2.804  -1.489   0.949  1.00  0.00    -0.266 NA
ATOM      6  C   UNL     1      -1.796  -0.716   0.758  1.00  0.00     0.134 C 
ATOM      7  C   UNL     1      -1.844   0.665   0.353  1.00  0.00     0.025 A 
ATOM      8  C   UNL     1      -2.800   1.651   0.583  1.00  0.00     0.012 A 
ATOM      9  C   UNL     1      -2.604   2.910  -0.011  1.00  0.00     0.001 A 
ATOM     10  C   UNL     1      -1.481   3.144  -0.831  1.00  0.00     0.001 A 
ATOM     11  C   UNL     1      -0.547   2.121  -1.069  1.00  0.00     0.010 A 
ATOM     12  C   UNL     1      -0.745   0.880  -0.458  1.00  0.00     0.020 A 
ENDROOT
BRANCH   1  13
ATOM     13  O   UNL     1       0.002  -0.854  -1.956  1.00  0.00    -0.363 OA
ATOM     14  H   UNL     1      -0.955  -0.928  -2.212  1.00  0.00     0.214 HD
ENDBRANCH   1  13
BRANCH   1  15
ATOM     15  C   UNL     1       1.497  -0.183  -0.182  1.00  0.00     0.009 A 
ATOM     16  C   UNL     1       2.506   0.095  -1.125  1.00  0.00     0.010 A 
ATOM     17  C   UNL     1       1.828  -0.161   1.188  1.00  0.00     0.010 A 
ATOM     18  C   UNL     1       3.819   0.340  -0.710  1.00  0.00     0.021 A 
ATOM     19  C   UNL     1       3.142   0.084   1.598  1.00  0.00     0.021 A 
ATOM     20  C   UNL     1       4.139   0.330   0.650  1.00  0.00     0.041 A 
ATOM     21  Cl  UNL     1       5.786   0.642   1.167  1.00  0.00    -0.084 Cl
ENDBRANCH   1  15
TORSDOF 2
