REMARK SMILES CN1CCCCC1CCN1c2ccccc2Sc2ccc(S(C)=O)cc21
REMARK SMILES IDX 9 1 8 2 7 3 1 4 2 5 3 6 4 7 6 8 5 9 10 10 11 11 26 12 16 13
REMARK SMILES IDX 12 14 18 15 25 16 17 17 15 18 13 19 19 20 21 21 14 22 20 23
REMARK SMILES IDX 22 24 23 25 24 26
REMARK H PARENT
REMARK Flexibility Score: inf
ROOT
ATOM      1  C   UNL     1       0.112  -0.643  -0.939  1.00  0.00     0.124 C 
ENDROOT
BRANCH   1   2
ATOM      2  C   UNL     1       1.168  -0.341   0.150  1.00  0.00     0.041 C 
BRANCH   2   3
ATOM      3  C   UNL     1       2.599  -0.313  -0.433  1.00  0.00     0.058 C 
ATOM      4  C   UNL     1       3.795   0.373  -2.469  1.00  0.00     0.105 C 
ATOM      5  N   UNL     1       2.704   0.688  -1.529  1.00  0.00    -0.303 NA
ATOM      6  C   UNL     1       2.765   2.090  -1.053  1.00  0.00     0.084 C 
ATOM      7  C   UNL     1       3.864   2.318  -0.006  1.00  0.00     0.016 C 
ATOM      8  C   UNL     1       3.664  -0.097   0.670  1.00  0.00     0.019 C 
ATOM      9  C   UNL     1       3.705   1.351   1.165  1.00  0.00     0.003 C 
ENDBRANCH   2   3
ENDBRANCH   1   2
BRANCH   1  10
ATOM     10  N   UNL     1      -1.135  -1.190  -0.370  1.00  0.00    -0.340 N 
ATOM     11  C   UNL     1      -1.275  -2.624  -0.158  1.00  0.00     0.055 A 
ATOM     12  C   UNL     1      -2.223  -0.311   0.037  1.00  0.00     0.056 A 
ATOM     13  C   UNL     1      -2.559  -3.208  -0.124  1.00  0.00     0.036 A 
ATOM     14  C   UNL     1      -0.161  -3.452   0.103  1.00  0.00     0.027 A 
ATOM     15  C   UNL     1      -3.543  -0.804   0.081  1.00  0.00     0.036 A 
ATOM     16  C   UNL     1      -1.989   1.008   0.486  1.00  0.00     0.045 A 
ATOM     17  S   UNL     1      -3.959  -2.313  -0.781  1.00  0.00    -0.086 SA
ATOM     18  C   UNL     1      -2.730  -4.539   0.271  1.00  0.00     0.017 A 
ATOM     19  C   UNL     1      -0.336  -4.788   0.472  1.00  0.00     0.002 A 
ATOM     20  C   UNL     1      -4.570  -0.050   0.659  1.00  0.00     0.019 A 
ATOM     21  C   UNL     1      -3.023   1.772   1.040  1.00  0.00     0.041 A 
ATOM     22  C   UNL     1      -1.620  -5.325   0.577  1.00  0.00     0.001 A 
ATOM     23  C   UNL     1      -4.309   1.231   1.147  1.00  0.00     0.019 A 
BRANCH  21  24
ATOM     24  S   UNL     1      -2.682   3.423   1.614  1.00  0.00     0.050 S 
ATOM     25  C   UNL     1      -3.714   4.499   0.601  1.00  0.00     0.129 C 
ATOM     26  O   UNL     1      -3.307   3.478   3.003  1.00  0.00    -0.255 OA
ENDBRANCH  21  24
ENDBRANCH   1  10
TORSDOF 4
