REMARK SMILES C[C@]12CCC(=O)C=C1CC[C@@H]1[C@@H]2[C@@H](O)C[C@@]2(C)[C@H]1CC[C@]2(O)C(=O)CO
REMARK SMILES IDX 23 1 24 2 21 3 18 4 19 5 16 6 11 7 20 8 17 9 15 10 12 11
REMARK SMILES IDX 10 12 13 13 2 14 9 15 8 16 3 17 1 18 7 19 4 20 5 21 6 22
REMARK SMILES IDX 22 23 14 25 25 27 26 28
REMARK H PARENT 22 24 14 26 26 29
REMARK Flexibility Score: inf
ROOT
ATOM      1  C   UNL     1       4.328  -0.107   1.142  1.00  0.00     0.190 C 
ATOM      2  O   UNL     1       4.118  -0.947   2.004  1.00  0.00    -0.294 OA
ENDROOT
BRANCH   1   3
ATOM      3  C   UNL     1       3.155   0.696   0.565  1.00  0.00     0.131 C 
ATOM      4  C   UNL     1       1.038   0.806  -0.535  1.00  0.00     0.002 C 
ATOM      5  C   UNL     1       2.047   1.125  -1.629  1.00  0.00     0.008 C 
ATOM      6  C   UNL     1       1.804  -0.097   0.443  1.00  0.00     0.009 C 
ATOM      7  C   UNL     1      -0.351   0.257  -0.943  1.00  0.00    -0.000 C 
ATOM      8  C   UNL     1       3.405   1.146  -0.905  1.00  0.00     0.044 C 
ATOM      9  C   UNL     1       2.082  -1.527  -0.141  1.00  0.00     0.015 C 
ATOM     10  C   UNL     1       0.959  -0.200   1.742  1.00  0.00     0.042 C 
ATOM     11  C   UNL     1      -1.218   0.076   0.351  1.00  0.00     0.031 C 
ATOM     12  C   UNL     1      -1.044   1.243  -1.903  1.00  0.00     0.009 C 
ATOM     13  C   UNL     1      -0.478  -0.730   1.477  1.00  0.00     0.119 C 
ATOM     14  C   UNL     1      -2.701  -0.390   0.049  1.00  0.00    -0.005 C 
ATOM     15  C   UNL     1      -2.436   0.759  -2.290  1.00  0.00     0.032 C 
ATOM     16  C   UNL     1      -3.277   0.499  -1.064  1.00  0.00    -0.060 C 
ATOM     17  C   UNL     1      -3.553  -0.237   1.352  1.00  0.00     0.020 C 
ATOM     18  C   UNL     1      -2.779  -1.859  -0.443  1.00  0.00     0.016 C 
ATOM     19  C   UNL     1      -4.569   0.876  -1.077  1.00  0.00     0.047 C 
ATOM     20  C   UNL     1      -5.057  -0.385   1.109  1.00  0.00     0.081 C 
ATOM     21  C   UNL     1      -5.496   0.519   0.004  1.00  0.00     0.155 C 
ATOM     22  O   UNL     1      -6.686   0.929  -0.033  1.00  0.00    -0.295 OA
BRANCH   3  23
ATOM     23  O   UNL     1       2.981   1.864   1.340  1.00  0.00    -0.381 OA
ATOM     24  H   UNL     1       2.994   1.611   2.300  1.00  0.00     0.212 HD
ENDBRANCH   3  23
BRANCH  13  25
ATOM     25  O   UNL     1      -0.441  -2.101   1.185  1.00  0.00    -0.393 OA
ATOM     26  H   UNL     1      -0.249  -2.575   2.036  1.00  0.00     0.210 HD
ENDBRANCH  13  25
ENDBRANCH   1   3
BRANCH   1  27
ATOM     27  C   UNL     1       5.762   0.215   0.805  1.00  0.00     0.234 C 
BRANCH  27  28
ATOM     28  O   UNL     1       6.370  -0.884   0.184  1.00  0.00    -0.388 OA
ATOM     29  H   UNL     1       6.035  -0.903  -0.750  1.00  0.00     0.211 HD
ENDBRANCH  27  28
ENDBRANCH   1  27
TORSDOF 5
