REMARK SMILES CCCCC[C@](C)(O)/C=C/[C@@H]1[C@@H](C/C=C\CCCC(=O)O)[C@@H](O)C[C@H]1O.NC(CO)(CO)CO
REMARK SMILES IDX 28 1 27 2 29 5 30 6 31 8 32 9 33 11 34 12
REMARK H PARENT 27 3 27 4 30 7 32 10 34 13
REMARK Flexibility Score: inf
ROOT
ATOM      1  C   UNL     1       0.026   0.027   0.172  1.00  0.00     0.086 C 
ENDROOT
BRANCH   1   2
ATOM      2  N   UNL     1       0.086  -0.111   1.635  1.00  0.00    -0.319 NA
ATOM      3  H   UNL     1      -0.881  -0.219   2.020  1.00  0.00     0.119 HD
ATOM      4  H   UNL     1       0.608  -0.982   1.887  1.00  0.00     0.119 HD
ENDBRANCH   1   2
BRANCH   1   5
ATOM      5  C   UNL     1       1.454   0.285  -0.371  1.00  0.00     0.183 C 
BRANCH   5   6
ATOM      6  O   UNL     1       2.308  -0.782  -0.051  1.00  0.00    -0.394 OA
ATOM      7  H   UNL     1       3.183  -0.571  -0.471  1.00  0.00     0.210 HD
ENDBRANCH   5   6
ENDBRANCH   1   5
BRANCH   1   8
ATOM      8  C   UNL     1      -0.876   1.233  -0.189  1.00  0.00     0.183 C 
BRANCH   8   9
ATOM      9  O   UNL     1      -0.407   2.401   0.430  1.00  0.00    -0.394 OA
ATOM     10  H   UNL     1      -1.018   3.130   0.145  1.00  0.00     0.210 HD
ENDBRANCH   8   9
ENDBRANCH   1   8
BRANCH   1  11
ATOM     11  C   UNL     1      -0.546  -1.263  -0.470  1.00  0.00     0.183 C 
BRANCH  11  12
ATOM     12  O   UNL     1      -1.835  -1.532   0.016  1.00  0.00    -0.394 OA
ATOM     13  H   UNL     1      -2.108  -2.397  -0.387  1.00  0.00     0.210 HD
ENDBRANCH  11  12
ENDBRANCH   1  11
TORSDOF 7
