REMARK SMILES CNCCC(Oc1ccc(C(F)(F)F)cc1)c1ccccc1
REMARK SMILES IDX 5 1 4 2 3 3 2 4 1 5 6 7 7 8 8 9 16 10 9 11 15 12 10 13 11 14
REMARK SMILES IDX 12 15 13 16 14 17 17 18 18 19 22 20 19 21 21 22 20 23
REMARK H PARENT 2 6
REMARK Flexibility Score: inf
ROOT
ATOM      1  C   UNL     1      -0.788  -0.614  -0.875  1.00  0.00     0.205 C 
ENDROOT
BRANCH   1   2
ATOM      2  C   UNL     1      -1.562   0.526  -0.175  1.00  0.00     0.065 C 
BRANCH   2   3
ATOM      3  C   UNL     1      -1.710   0.316   1.346  1.00  0.00     0.085 C 
BRANCH   3   4
ATOM      4  N   UNL     1      -2.342   1.468   2.009  1.00  0.00    -0.320 NA
ATOM      5  C   UNL     1      -1.373   2.525   2.312  1.00  0.00     0.101 C 
ATOM      6  H   UNL     1      -3.095   1.865   1.399  1.00  0.00     0.122 HD
ENDBRANCH   3   4
ENDBRANCH   2   3
ENDBRANCH   1   2
BRANCH   1   7
ATOM      7  O   UNL     1       0.500  -0.804  -0.279  1.00  0.00    -0.486 OA
BRANCH   7   8
ATOM      8  C   UNL     1       1.590   0.078  -0.369  1.00  0.00     0.120 A 
ATOM      9  C   UNL     1       2.696  -0.160   0.453  1.00  0.00     0.047 A 
ATOM     10  C   UNL     1       1.614   1.178  -1.247  1.00  0.00     0.047 A 
ATOM     11  C   UNL     1       3.809   0.684   0.413  1.00  0.00     0.017 A 
ATOM     12  C   UNL     1       2.727   2.023  -1.288  1.00  0.00     0.017 A 
ATOM     13  C   UNL     1       3.845   1.773  -0.474  1.00  0.00     0.056 A 
BRANCH  13  14
ATOM     14  C   UNL     1       5.023   2.714  -0.483  1.00  0.00     0.416 C 
ATOM     15  F   UNL     1       6.188   2.042  -0.155  1.00  0.00    -0.166 F 
ATOM     16  F   UNL     1       5.188   3.278  -1.736  1.00  0.00    -0.166 F 
ATOM     17  F   UNL     1       4.808   3.720   0.440  1.00  0.00    -0.166 F 
ENDBRANCH  13  14
ENDBRANCH   7   8
ENDBRANCH   1   7
BRANCH   1  18
ATOM     18  C   UNL     1      -1.576  -1.907  -0.836  1.00  0.00    -0.008 A 
ATOM     19  C   UNL     1      -1.382  -2.853   0.190  1.00  0.00     0.007 A 
ATOM     20  C   UNL     1      -2.561  -2.152  -1.810  1.00  0.00     0.007 A 
ATOM     21  C   UNL     1      -2.142  -4.026   0.223  1.00  0.00     0.000 A 
ATOM     22  C   UNL     1      -3.318  -3.327  -1.772  1.00  0.00     0.000 A 
ATOM     23  C   UNL     1      -3.107  -4.264  -0.758  1.00  0.00     0.000 A 
ENDBRANCH   1  18
TORSDOF 7
