REMARK SMILES CCC1(C)CC(=O)NC1=O
REMARK SMILES IDX 3 1 4 2 5 3 6 4 7 5 8 6 9 7 10 8 2 10 1 11
REMARK H PARENT 8 9
REMARK Flexibility Score: inf
ROOT
ATOM      1  C   UNL     1       0.067  -0.093   0.534  1.00  0.00     0.055 C 
ATOM      2  C   UNL     1       0.344  -0.362   2.025  1.00  0.00     0.022 C 
ATOM      3  C   UNL     1       0.701  -1.214  -0.350  1.00  0.00     0.117 C 
ATOM      4  C   UNL     1       1.658  -0.476  -1.227  1.00  0.00     0.227 C 
ATOM      5  O   UNL     1       2.350  -1.023  -2.124  1.00  0.00    -0.275 OA
ATOM      6  N   UNL     1       1.727   0.907  -0.946  1.00  0.00    -0.296 N 
ATOM      7  C   UNL     1       0.807   1.144   0.098  1.00  0.00     0.232 C 
ATOM      8  O   UNL     1       0.627   2.289   0.595  1.00  0.00    -0.274 OA
ATOM      9  H   UNL     1       2.334   1.612  -1.420  1.00  0.00     0.172 HD
ENDROOT
BRANCH   1  10
ATOM     10  C   UNL     1      -1.464   0.048   0.302  1.00  0.00     0.014 C 
ATOM     11  C   UNL     1      -1.859   0.491  -1.114  1.00  0.00     0.005 C 
ENDBRANCH   1  10
TORSDOF 1
