REMARK SMILES CCCC(C)(COC(N)=O)COC(=O)NC(C)C
REMARK SMILES IDX 4 1 5 2 3 3 2 4 1 5 6 6 7 7 8 8 9 9 10 10 11 13 12 14 13 15
REMARK SMILES IDX 14 16 15 17 16 19 17 20 18 21
REMARK H PARENT 9 11 9 12 15 18
REMARK Flexibility Score: inf
ROOT
ATOM      1  C   UNL     1      -1.018   0.710   0.715  1.00  0.00     0.036 C 
ATOM      2  C   UNL     1      -0.949  -0.433   1.756  1.00  0.00     0.018 C 
ENDROOT
BRANCH   1   3
ATOM      3  C   UNL     1      -1.785   1.976   1.257  1.00  0.00     0.013 C 
BRANCH   3   4
ATOM      4  C   UNL     1      -2.863   1.790   2.351  1.00  0.00    -0.003 C 
ATOM      5  C   UNL     1      -4.181   1.202   1.852  1.00  0.00     0.004 C 
ENDBRANCH   3   4
ENDBRANCH   1   3
BRANCH   1   6
ATOM      6  C   UNL     1      -1.663   0.192  -0.600  1.00  0.00     0.245 C 
BRANCH   6   7
ATOM      7  O   UNL     1      -2.988  -0.278  -0.385  1.00  0.00    -0.449 OA
BRANCH   7   8
ATOM      8  C   UNL     1      -3.790  -0.778  -1.415  1.00  0.00     0.404 C 
ATOM      9  N   UNL     1      -5.112  -1.222  -1.123  1.00  0.00    -0.335 N 
ATOM     10  O   UNL     1      -3.356  -0.839  -2.597  1.00  0.00    -0.225 OA
ATOM     11  H   UNL     1      -5.724  -1.597  -1.881  1.00  0.00     0.163 HD
ATOM     12  H   UNL     1      -5.478  -1.173  -0.147  1.00  0.00     0.163 HD
ENDBRANCH   7   8
ENDBRANCH   6   7
ENDBRANCH   1   6
BRANCH   1  13
ATOM     13  C   UNL     1       0.437   1.148   0.384  1.00  0.00     0.245 C 
BRANCH  13  14
ATOM     14  O   UNL     1       1.194   0.069  -0.162  1.00  0.00    -0.449 OA
BRANCH  14  15
ATOM     15  C   UNL     1       2.531   0.201  -0.546  1.00  0.00     0.407 C 
ATOM     16  O   UNL     1       3.124   1.308  -0.423  1.00  0.00    -0.225 OA
ATOM     17  N   UNL     1       3.218  -0.933  -1.087  1.00  0.00    -0.319 N 
ATOM     18  H   UNL     1       2.672  -1.815  -1.217  1.00  0.00     0.167 HD
BRANCH  17  19
ATOM     19  C   UNL     1       4.626  -0.883  -1.493  1.00  0.00     0.079 C 
ATOM     20  C   UNL     1       4.953  -2.053  -2.426  1.00  0.00     0.030 C 
ATOM     21  C   UNL     1       5.530  -0.916  -0.257  1.00  0.00     0.030 C 
ENDBRANCH  17  19
ENDBRANCH  14  15
ENDBRANCH  13  14
ENDBRANCH   1  13
TORSDOF 9
