REMARK SMILES NC(=O)CC[C@H](N)C(=O)O
REMARK SMILES IDX 5 1 6 2 7 3 8 6 9 7 10 8 4 10 2 11 1 12 3 13
REMARK H PARENT 7 4 7 5 10 9 1 14 1 15
REMARK Flexibility Score: inf
ROOT
ATOM      1  C   UNL     1       0.050   0.046  -0.347  1.00  0.00     0.040 C 
ENDROOT
BRANCH   1   2
ATOM      2  C   UNL     1      -1.300  -0.290   0.318  1.00  0.00     0.162 C 
BRANCH   2   3
ATOM      3  N   UNL     1      -1.126  -1.287   1.378  1.00  0.00    -0.318 NA
ATOM      4  H   UNL     1      -0.646  -0.832   2.187  1.00  0.00     0.119 HD
ATOM      5  H   UNL     1      -2.071  -1.557   1.738  1.00  0.00     0.119 HD
ENDBRANCH   2   3
BRANCH   2   6
ATOM      6  C   UNL     1      -2.252  -0.814  -0.722  1.00  0.00     0.320 C 
ATOM      7  O   UNL     1      -2.079  -1.959  -1.223  1.00  0.00    -0.251 OA
BRANCH   6   8
ATOM      8  O   UNL     1      -3.310  -0.021  -1.154  1.00  0.00    -0.480 OA
ATOM      9  H   UNL     1      -3.954  -0.355  -1.861  1.00  0.00     0.296 HD
ENDBRANCH   6   8
ENDBRANCH   2   6
ENDBRANCH   1   2
BRANCH   1  10
ATOM     10  C   UNL     1       0.991   0.820   0.587  1.00  0.00     0.102 C 
BRANCH  10  11
ATOM     11  C   UNL     1       2.229   1.238  -0.147  1.00  0.00     0.217 C 
ATOM     12  N   UNL     1       3.313   0.324  -0.314  1.00  0.00    -0.370 N 
ATOM     13  O   UNL     1       2.299   2.390  -0.653  1.00  0.00    -0.275 OA
ATOM     14  H   UNL     1       4.169   0.612  -0.837  1.00  0.00     0.159 HD
ATOM     15  H   UNL     1       3.260  -0.642   0.079  1.00  0.00     0.159 HD
ENDBRANCH  10  11
ENDBRANCH   1  10
TORSDOF 6
