REMARK SMILES CCCCOc1cc(C(=O)OCCN(CC)CC)ccc1N
REMARK SMILES IDX 9 1 10 2 8 3 6 4 7 5 21 6 20 7 19 8 5 9 4 10 3 11 2 12 1 13
REMARK SMILES IDX 22 14 11 17 12 18 13 19 14 20 15 21 16 22 17 23 18 24
REMARK H PARENT 22 15 22 16
REMARK Flexibility Score: inf
ROOT
ATOM      1  C   UNL     1      -1.076   0.857  -1.335  1.00  0.00     0.338 C 
ATOM      2  O   UNL     1      -1.171   1.552  -0.286  1.00  0.00    -0.246 OA
ENDROOT
BRANCH   1   3
ATOM      3  C   UNL     1       0.244   0.354  -1.774  1.00  0.00     0.063 A 
ATOM      4  C   UNL     1       2.661   0.147  -1.443  1.00  0.00     0.143 A 
ATOM      5  C   UNL     1       1.404   0.630  -1.028  1.00  0.00     0.064 A 
ATOM      6  C   UNL     1       2.751  -0.620  -2.619  1.00  0.00     0.074 A 
ATOM      7  C   UNL     1       1.595  -0.894  -3.361  1.00  0.00     0.030 A 
ATOM      8  C   UNL     1       0.354  -0.414  -2.944  1.00  0.00     0.018 A 
BRANCH   4   9
ATOM      9  O   UNL     1       3.833   0.408  -0.715  1.00  0.00    -0.491 OA
BRANCH   9  10
ATOM     10  C   UNL     1       3.887   1.144   0.505  1.00  0.00     0.229 C 
BRANCH  10  11
ATOM     11  C   UNL     1       5.329   1.214   1.014  1.00  0.00     0.041 C 
BRANCH  11  12
ATOM     12  C   UNL     1       5.964  -0.167   1.245  1.00  0.00     0.000 C 
ATOM     13  C   UNL     1       5.324  -0.927   2.407  1.00  0.00     0.004 C 
ENDBRANCH  11  12
ENDBRANCH  10  11
ENDBRANCH   9  10
ENDBRANCH   4   9
BRANCH   6  14
ATOM     14  N   UNL     1       4.014  -1.126  -3.066  1.00  0.00    -0.396 N 
ATOM     15  H   UNL     1       4.894  -0.943  -2.535  1.00  0.00     0.156 HD
ATOM     16  H   UNL     1       4.081  -1.695  -3.940  1.00  0.00     0.156 HD
ENDBRANCH   6  14
ENDBRANCH   1   3
BRANCH   1  17
ATOM     17  O   UNL     1      -2.217   0.570  -2.095  1.00  0.00    -0.461 OA
BRANCH  17  18
ATOM     18  C   UNL     1      -3.548   0.885  -1.687  1.00  0.00     0.248 C 
BRANCH  18  19
ATOM     19  C   UNL     1      -4.099  -0.196  -0.750  1.00  0.00     0.126 C 
BRANCH  19  20
ATOM     20  N   UNL     1      -3.500  -0.097   0.600  1.00  0.00    -0.301 NA
BRANCH  20  21
ATOM     21  C   UNL     1      -3.941   1.037   1.455  1.00  0.00     0.081 C 
ATOM     22  C   UNL     1      -5.436   1.377   1.370  1.00  0.00     0.021 C 
ENDBRANCH  20  21
BRANCH  20  23
ATOM     23  C   UNL     1      -3.393  -1.393   1.306  1.00  0.00     0.081 C 
ATOM     24  C   UNL     1      -4.744  -1.964   1.744  1.00  0.00     0.021 C 
ENDBRANCH  20  23
ENDBRANCH  19  20
ENDBRANCH  18  19
ENDBRANCH  17  18
ENDBRANCH   1  17
TORSDOF 12
