REMARK SMILES C[C@@H]1C[C@H]2[C@@H]3CCC4=CC(=O)C=C[C@]4(C)[C@@]3(F)[C@@H](O)C[C@]2(C)[C@H]1C(=O)CO
REMARK SMILES IDX 24 1 25 2 23 3 4 4 3 5 21 6 5 7 2 8 22 9 20 10 16 11 6 12
REMARK SMILES IDX 1 13 18 14 17 15 14 16 7 17 8 18 13 19 15 20 9 21 12 22
REMARK SMILES IDX 10 23 11 24 19 25 26 27 27 28
REMARK H PARENT 19 26 27 29
REMARK Flexibility Score: inf
ROOT
ATOM      1  C   UNL     1       3.893  -1.030  -1.213  1.00  0.00     0.162 C 
ATOM      2  O   UNL     1       4.113  -1.363  -2.369  1.00  0.00    -0.297 OA
ENDROOT
BRANCH   1   3
ATOM      3  C   UNL     1       2.821   0.004  -0.900  1.00  0.00     0.068 C 
ATOM      4  C   UNL     1       0.574   0.726  -0.835  1.00  0.00     0.002 C 
ATOM      5  C   UNL     1       1.158   1.462  -2.033  1.00  0.00     0.008 C 
ATOM      6  C   UNL     1       1.391  -0.570  -0.740  1.00  0.00    -0.017 C 
ATOM      7  C   UNL     1      -0.952   0.491  -0.748  1.00  0.00     0.034 C 
ATOM      8  C   UNL     1       2.668   1.114  -1.985  1.00  0.00    -0.003 C 
ATOM      9  C   UNL     1       1.091  -1.584  -1.894  1.00  0.00     0.012 C 
ATOM     10  C   UNL     1       1.114  -1.210   0.644  1.00  0.00     0.043 C 
ATOM     11  C   UNL     1      -1.274  -0.163   0.653  1.00  0.00     0.152 C 
ATOM     12  C   UNL     1      -1.713   1.826  -0.929  1.00  0.00     0.012 C 
ATOM     13  C   UNL     1       3.526   2.343  -1.663  1.00  0.00     0.008 C 
ATOM     14  C   UNL     1      -0.403  -1.451   0.899  1.00  0.00     0.154 C 
ATOM     15  F   UNL     1      -0.876   0.747   1.630  1.00  0.00    -0.239 F 
ATOM     16  C   UNL     1      -2.831  -0.361   0.866  1.00  0.00     0.044 C 
ATOM     17  C   UNL     1      -3.220   1.648  -0.749  1.00  0.00     0.032 C 
ATOM     18  C   UNL     1      -3.492   1.000   0.586  1.00  0.00    -0.053 C 
ATOM     19  C   UNL     1      -3.090  -0.859   2.290  1.00  0.00    -0.009 C 
ATOM     20  C   UNL     1      -3.474  -1.400  -0.088  1.00  0.00     0.024 C 
ATOM     21  C   UNL     1      -4.183   1.673   1.520  1.00  0.00     0.052 C 
ATOM     22  C   UNL     1      -3.788  -0.175   3.197  1.00  0.00     0.048 C 
ATOM     23  C   UNL     1      -4.360   1.127   2.866  1.00  0.00     0.178 C 
ATOM     24  O   UNL     1      -4.981   1.785   3.741  1.00  0.00    -0.290 OA
BRANCH  14  25
ATOM     25  O   UNL     1      -0.851  -2.532   0.125  1.00  0.00    -0.390 OA
ATOM     26  H   UNL     1      -0.466  -3.357   0.522  1.00  0.00     0.211 HD
ENDBRANCH  14  25
ENDBRANCH   1   3
BRANCH   1  27
ATOM     27  C   UNL     1       4.686  -1.668  -0.106  1.00  0.00     0.231 C 
BRANCH  27  28
ATOM     28  O   UNL     1       6.049  -1.378  -0.259  1.00  0.00    -0.389 OA
ATOM     29  H   UNL     1       6.170  -0.436   0.032  1.00  0.00     0.211 HD
ENDBRANCH  27  28
ENDBRANCH   1  27
TORSDOF 4
