REMARK SMILES Cc1c(C)c2c(c(C)c1O)CCC(C)(COc1ccc(CC3SC(=O)NC3=O)cc1)O2
REMARK SMILES IDX 16 1 15 2 13 3 1 4 2 5 3 6 9 7 4 8 5 9 7 10 6 11 31 12 8 13
REMARK SMILES IDX 11 14 12 15 14 16 10 17 17 19 18 20 30 21 19 22 29 23 20 24
REMARK SMILES IDX 21 25 22 26 23 27 27 28 24 29 26 30 28 31 25 32
REMARK H PARENT 10 18 26 33
REMARK Flexibility Score: inf
ROOT
ATOM      1  O   UNL     1       0.020  -0.733   1.000  1.00  0.00    -0.489 OA
ENDROOT
BRANCH   1   2
ATOM      2  C   UNL     1      -0.107  -1.698   2.041  1.00  0.00     0.277 C 
BRANCH   2   3
ATOM      3  C   UNL     1      -1.551  -2.253   2.102  1.00  0.00     0.140 C 
ATOM      4  C   UNL     1      -5.211   2.420   0.002  1.00  0.00     0.049 C 
ATOM      5  C   UNL     1      -4.302   1.212  -0.096  1.00  0.00    -0.002 A 
ATOM      6  C   UNL     1      -3.734   0.625   1.063  1.00  0.00    -0.002 A 
ATOM      7  C   UNL     1      -3.989   0.680  -1.369  1.00  0.00     0.122 A 
ATOM      8  C   UNL     1      -3.946   1.235   2.431  1.00  0.00     0.049 C 
ATOM      9  C   UNL     1      -2.986  -0.562   0.947  1.00  0.00     0.127 A 
ATOM     10  C   UNL     1      -3.204  -0.486  -1.483  1.00  0.00    -0.002 A 
ATOM     11  C   UNL     1      -2.754  -1.146  -0.316  1.00  0.00     0.001 A 
ATOM     12  O   UNL     1      -2.481  -1.169   2.108  1.00  0.00    -0.483 OA
ATOM     13  C   UNL     1      -2.896  -1.051  -2.852  1.00  0.00     0.049 C 
ATOM     14  C   UNL     1      -1.958  -2.435  -0.415  1.00  0.00     0.044 C 
ATOM     15  C   UNL     1      -1.867  -3.190   0.915  1.00  0.00     0.057 C 
ATOM     16  C   UNL     1      -1.726  -3.033   3.415  1.00  0.00     0.060 C 
BRANCH   7  17
ATOM     17  O   UNL     1      -4.443   1.296  -2.542  1.00  0.00    -0.507 OA
ATOM     18  H   UNL     1      -4.929   2.183  -2.564  1.00  0.00     0.293 HD
ENDBRANCH   7  17
ENDBRANCH   2   3
ENDBRANCH   1   2
BRANCH   1  19
ATOM     19  C   UNL     1       1.203  -0.057   0.674  1.00  0.00     0.119 A 
ATOM     20  C   UNL     1       1.174   0.850  -0.391  1.00  0.00     0.047 A 
ATOM     21  C   UNL     1       2.407  -0.259   1.374  1.00  0.00     0.047 A 
ATOM     22  C   UNL     1       2.326   1.549  -0.758  1.00  0.00     0.007 A 
ATOM     23  C   UNL     1       3.560   0.440   1.007  1.00  0.00     0.007 A 
ATOM     24  C   UNL     1       3.527   1.354  -0.059  1.00  0.00    -0.046 A 
BRANCH  24  25
ATOM     25  C   UNL     1       4.775   2.091  -0.475  1.00  0.00     0.060 C 
BRANCH  25  26
ATOM     26  C   UNL     1       5.423   1.450  -1.712  1.00  0.00     0.150 C 
ATOM     27  S   UNL     1       6.072  -0.231  -1.316  1.00  0.00    -0.051 SA
ATOM     28  C   UNL     1       6.585   2.271  -2.186  1.00  0.00     0.241 C 
ATOM     29  C   UNL     1       7.733   0.316  -1.670  1.00  0.00     0.286 C 
ATOM     30  N   UNL     1       7.852   1.643  -2.137  1.00  0.00    -0.286 N 
ATOM     31  O   UNL     1       6.452   3.447  -2.615  1.00  0.00    -0.273 OA
ATOM     32  O   UNL     1       8.737  -0.425  -1.508  1.00  0.00    -0.261 OA
ATOM     33  H   UNL     1       8.751   2.098  -2.410  1.00  0.00     0.173 HD
ENDBRANCH  25  26
ENDBRANCH  24  25
ENDBRANCH   1  19
TORSDOF 6
