REMARK SMILES CN(CCCCCCCCCCN(C)C(=O)Oc1cccc([N+](C)(C)C)c1)C(=O)Oc1cccc([N+](C)(C)C)c1
REMARK SMILES IDX 7 1 6 2 5 3 4 4 3 5 2 6 1 7 28 8 29 9 30 10 31 11 32 12
REMARK SMILES IDX 40 13 33 14 35 15 34 16 36 17 37 18 38 19 39 20 8 21 9 22
REMARK SMILES IDX 10 23 11 24 12 25 13 26 14 27 15 28 16 29 17 30 18 31 19 32
REMARK SMILES IDX 27 33 20 34 22 35 21 36 23 37 24 38 25 39 26 40
REMARK H PARENT
REMARK Flexibility Score: inf
ROOT
ATOM      1  C   UNL     1       0.080   2.752   0.092  1.00  0.00     0.000 C 
ENDROOT
BRANCH   1   2
ATOM      2  C   UNL     1       0.185   1.393   0.809  1.00  0.00     0.000 C 
BRANCH   2   3
ATOM      3  C   UNL     1       0.420   0.230  -0.167  1.00  0.00     0.002 C 
BRANCH   3   4
ATOM      4  C   UNL     1       1.778   0.317  -0.882  1.00  0.00     0.022 C 
BRANCH   4   5
ATOM      5  C   UNL     1       1.998  -0.868  -1.832  1.00  0.00     0.123 C 
BRANCH   5   6
ATOM      6  N   UNL     1       2.113  -2.133  -1.093  1.00  0.00    -0.311 N 
ATOM      7  C   UNL     1       1.024  -3.114  -1.128  1.00  0.00     0.150 C 
BRANCH   6   8
ATOM      8  C   UNL     1       3.310  -2.428  -0.349  1.00  0.00     0.414 C 
ATOM      9  O   UNL     1       3.384  -3.490   0.327  1.00  0.00    -0.224 OA
BRANCH   8  10
ATOM     10  O   UNL     1       4.409  -1.560  -0.424  1.00  0.00    -0.410 OA
BRANCH  10  11
ATOM     11  C   UNL     1       5.473  -1.528   0.488  1.00  0.00     0.138 A 
ATOM     12  C   UNL     1       5.301  -1.852   1.842  1.00  0.00     0.048 A 
ATOM     13  C   UNL     1       6.733  -1.126   0.030  1.00  0.00     0.115 A 
ATOM     14  C   UNL     1       6.385  -1.801   2.714  1.00  0.00     0.010 A 
ATOM     15  C   UNL     1       7.861  -1.074   0.891  1.00  0.00     0.135 A 
ATOM     16  C   UNL     1       7.650  -1.429   2.252  1.00  0.00     0.068 A 
BRANCH  15  17
ATOM     17  N   UNL     1       9.186  -0.691   0.356  1.00  0.00    -0.298 N 
ATOM     18  C   UNL     1       9.596  -1.665  -0.685  1.00  0.00     0.340 C 
ATOM     19  C   UNL     1       9.111   0.668  -0.238  1.00  0.00     0.340 C 
ATOM     20  C   UNL     1      10.253  -0.666   1.391  1.00  0.00     0.340 C 
ENDBRANCH  15  17
ENDBRANCH  10  11
ENDBRANCH   8  10
ENDBRANCH   6   8
ENDBRANCH   5   6
ENDBRANCH   4   5
ENDBRANCH   3   4
ENDBRANCH   2   3
ENDBRANCH   1   2
BRANCH   1  21
ATOM     21  C   UNL     1      -0.501   3.868   0.982  1.00  0.00     0.000 C 
BRANCH  21  22
ATOM     22  C   UNL     1      -1.960   3.657   1.449  1.00  0.00     0.000 C 
BRANCH  22  23
ATOM     23  C   UNL     1      -2.943   3.213   0.353  1.00  0.00     0.002 C 
BRANCH  23  24
ATOM     24  C   UNL     1      -3.085   4.250  -0.775  1.00  0.00     0.022 C 
BRANCH  24  25
ATOM     25  C   UNL     1      -4.021   3.770  -1.893  1.00  0.00     0.123 C 
BRANCH  25  26
ATOM     26  N   UNL     1      -3.443   2.629  -2.620  1.00  0.00    -0.311 N 
ATOM     27  C   UNL     1      -2.375   2.857  -3.599  1.00  0.00     0.150 C 
BRANCH  26  28
ATOM     28  C   UNL     1      -3.841   1.280  -2.312  1.00  0.00     0.414 C 
ATOM     29  O   UNL     1      -3.358   0.317  -2.968  1.00  0.00    -0.224 OA
BRANCH  28  30
ATOM     30  O   UNL     1      -4.792   1.044  -1.308  1.00  0.00    -0.410 OA
BRANCH  30  31
ATOM     31  C   UNL     1      -4.972  -0.172  -0.634  1.00  0.00     0.138 A 
ATOM     32  C   UNL     1      -3.922  -1.081  -0.443  1.00  0.00     0.048 A 
ATOM     33  C   UNL     1      -6.233  -0.457  -0.102  1.00  0.00     0.115 A 
ATOM     34  C   UNL     1      -4.144  -2.271   0.242  1.00  0.00     0.010 A 
ATOM     35  C   UNL     1      -6.496  -1.666   0.594  1.00  0.00     0.135 A 
ATOM     36  C   UNL     1      -5.408  -2.567   0.754  1.00  0.00     0.068 A 
BRANCH  35  37
ATOM     37  N   UNL     1      -7.852  -1.943   1.112  1.00  0.00    -0.298 N 
ATOM     38  C   UNL     1      -8.822  -1.938  -0.012  1.00  0.00     0.340 C 
ATOM     39  C   UNL     1      -7.964  -3.260   1.792  1.00  0.00     0.340 C 
ATOM     40  C   UNL     1      -8.231  -0.899   2.095  1.00  0.00     0.340 C 
ENDBRANCH  35  37
ENDBRANCH  30  31
ENDBRANCH  28  30
ENDBRANCH  26  28
ENDBRANCH  25  26
ENDBRANCH  24  25
ENDBRANCH  23  24
ENDBRANCH  22  23
ENDBRANCH  21  22
ENDBRANCH   1  21
TORSDOF 19
