REMARK SMILES CCCC(CCC)C(=O)O
REMARK SMILES IDX 4 1 3 2 2 3 1 4 5 5 6 6 7 7 8 8 9 9 10 10
REMARK H PARENT 10 11
REMARK Flexibility Score: inf
ROOT
ATOM      1  C   UNL     1       0.101  -0.110   0.034  1.00  0.00     0.099 C 
ENDROOT
BRANCH   1   2
ATOM      2  C   UNL     1       1.479  -0.017  -0.665  1.00  0.00     0.015 C 
BRANCH   2   3
ATOM      3  C   UNL     1       2.515   0.844   0.083  1.00  0.00    -0.003 C 
ATOM      4  C   UNL     1       2.927   0.247   1.428  1.00  0.00     0.004 C 
ENDBRANCH   2   3
ENDBRANCH   1   2
BRANCH   1   5
ATOM      5  C   UNL     1      -0.842  -1.040  -0.767  1.00  0.00     0.015 C 
BRANCH   5   6
ATOM      6  C   UNL     1      -2.064  -1.536   0.032  1.00  0.00    -0.003 C 
ATOM      7  C   UNL     1      -3.181  -0.499   0.143  1.00  0.00     0.004 C 
ENDBRANCH   5   6
ENDBRANCH   1   5
BRANCH   1   8
ATOM      8  C   UNL     1      -0.496   1.263   0.204  1.00  0.00     0.306 C 
ATOM      9  O   UNL     1      -0.844   1.938  -0.803  1.00  0.00    -0.252 OA
BRANCH   8  10
ATOM     10  O   UNL     1      -0.639   1.800   1.479  1.00  0.00    -0.481 OA
ATOM     11  H   UNL     1      -1.031   2.724   1.613  1.00  0.00     0.296 HD
ENDBRANCH   8  10
ENDBRANCH   1   8
TORSDOF 6
