REMARK SMILES CCC1=C(C)CN(C(=O)NCCc2ccc(S(=O)(=O)NC(=O)N[C@H]3CC[C@H](C)CC3)cc2)C1=O
REMARK SMILES IDX 12 1 11 2 10 3 8 4 9 5 7 7 3 8 4 9 33 10 5 11 6 12 34 13
REMARK SMILES IDX 2 14 1 15 13 16 14 17 32 18 15 19 31 20 16 21 17 22 18 23
REMARK SMILES IDX 19 24 20 25 21 26 22 28 23 29 24 31 30 32 25 33 29 34 26 35
REMARK SMILES IDX 27 36 28 37
REMARK H PARENT 10 6 20 27 23 30
REMARK Flexibility Score: inf
ROOT
ATOM      1  C   UNL     1      -1.695   1.409  -3.573  1.00  0.00     0.057 C 
ENDROOT
BRANCH   1   2
ATOM      2  C   UNL     1      -2.886   2.357  -3.393  1.00  0.00     0.122 C 
BRANCH   2   3
ATOM      3  N   UNL     1      -3.974   1.697  -2.671  1.00  0.00    -0.337 N 
ATOM      4  C   UNL     1      -4.150   1.828  -1.250  1.00  0.00     0.324 C 
ATOM      5  O   UNL     1      -3.467   2.670  -0.607  1.00  0.00    -0.248 OA
ATOM      6  H   UNL     1      -4.541   0.994  -3.194  1.00  0.00     0.165 HD
BRANCH   4   7
ATOM      7  N   UNL     1      -5.093   0.998  -0.554  1.00  0.00    -0.256 N 
ATOM      8  C   UNL     1      -6.393   0.045   1.158  1.00  0.00     0.018 C 
ATOM      9  C   UNL     1      -6.800  -0.498   0.007  1.00  0.00    -0.045 C 
ATOM     10  C   UNL     1      -5.343   0.990   0.843  1.00  0.00     0.258 C 
ATOM     11  C   UNL     1      -7.899  -1.505  -0.129  1.00  0.00     0.042 C 
ATOM     12  C   UNL     1      -6.010   0.037  -1.162  1.00  0.00     0.162 C 
ATOM     13  O   UNL     1      -4.739   1.714   1.678  1.00  0.00    -0.269 OA
BRANCH   8  14
ATOM     14  C   UNL     1      -6.981  -0.188   2.522  1.00  0.00     0.038 C 
ATOM     15  C   UNL     1      -8.046   0.857   2.839  1.00  0.00     0.009 C 
ENDBRANCH   8  14
ENDBRANCH   4   7
ENDBRANCH   2   3
ENDBRANCH   1   2
BRANCH   1  16
ATOM     16  C   UNL     1      -1.144   0.952  -2.247  1.00  0.00    -0.046 A 
ATOM     17  C   UNL     1      -1.477  -0.313  -1.737  1.00  0.00     0.005 A 
ATOM     18  C   UNL     1      -0.350   1.816  -1.477  1.00  0.00     0.005 A 
ATOM     19  C   UNL     1      -1.019  -0.709  -0.477  1.00  0.00     0.022 A 
ATOM     20  C   UNL     1       0.101   1.421  -0.214  1.00  0.00     0.022 A 
ATOM     21  C   UNL     1      -0.236   0.160   0.294  1.00  0.00     0.087 A 
BRANCH  21  22
ATOM     22  S   UNL     1       0.325  -0.336   1.888  1.00  0.00     0.265 S 
ATOM     23  O   UNL     1      -0.690  -1.251   2.515  1.00  0.00    -0.201 OA
ATOM     24  O   UNL     1       0.489   0.864   2.779  1.00  0.00    -0.201 OA
BRANCH  22  25
ATOM     25  N   UNL     1       1.835  -1.174   1.748  1.00  0.00    -0.231 N 
ATOM     26  C   UNL     1       3.061  -0.488   1.472  1.00  0.00     0.328 C 
ATOM     27  H   UNL     1       1.844  -2.209   1.881  1.00  0.00     0.185 HD
ATOM     28  O   UNL     1       3.057   0.756   1.264  1.00  0.00    -0.248 OA
ATOM     29  N   UNL     1       4.293  -1.221   1.437  1.00  0.00    -0.335 N 
ATOM     30  H   UNL     1       4.252  -2.260   1.548  1.00  0.00     0.165 HD
BRANCH  29  31
ATOM     31  C   UNL     1       5.573  -0.592   1.098  1.00  0.00     0.083 C 
ATOM     32  C   UNL     1       6.728  -1.334   1.796  1.00  0.00     0.025 C 
ATOM     33  C   UNL     1       5.770  -0.603  -0.427  1.00  0.00     0.025 C 
ATOM     34  C   UNL     1       8.083  -0.723   1.416  1.00  0.00     0.005 C 
ATOM     35  C   UNL     1       7.126   0.003  -0.814  1.00  0.00     0.005 C 
ATOM     36  C   UNL     1       8.284  -0.734  -0.111  1.00  0.00    -0.014 C 
ATOM     37  C   UNL     1       9.628  -0.099  -0.481  1.00  0.00     0.007 C 
ENDBRANCH  29  31
ENDBRANCH  22  25
ENDBRANCH  21  22
ENDBRANCH   1  16
TORSDOF 8
