REMARK SMILES O=[N+]([O-])O[C@H]1CO[C@H]2[C@@H]1OC[C@H]2O[N+](=O)[O-]
REMARK SMILES IDX 8 1 7 2 6 3 5 4 9 5 10 6 11 7 12 8 13 9 14 10 16 11 15 12
REMARK SMILES IDX 4 13 2 14 3 15 1 16
REMARK H PARENT
REMARK Flexibility Score: inf
ROOT
ATOM      1  C   UNL     1       0.383   0.949  -0.412  1.00  0.00     0.180 C 
ATOM      2  O   UNL     1       0.025   0.098  -1.479  1.00  0.00    -0.371 OA
ATOM      3  C   UNL     1      -1.325  -0.236  -1.282  1.00  0.00     0.195 C 
ATOM      4  C   UNL     1      -1.595  -0.249   0.211  1.00  0.00     0.224 C 
ATOM      5  C   UNL     1      -0.544   0.690   0.760  1.00  0.00     0.180 C 
ATOM      6  O   UNL     1       0.171   0.085   1.818  1.00  0.00    -0.371 OA
ATOM      7  C   UNL     1       1.436  -0.274   1.317  1.00  0.00     0.195 C 
ATOM      8  C   UNL     1       1.750   0.614   0.130  1.00  0.00     0.224 C 
ENDROOT
BRANCH   8   9
ATOM      9  O   UNL     1       2.554  -0.060  -0.838  1.00  0.00    -0.305 OA
BRANCH   9  10
ATOM     10  N   UNL     1       3.885  -0.348  -0.614  1.00  0.00     0.294 N 
ATOM     11  O   UNL     1       4.512   0.051   0.545  1.00  0.00    -0.109 OA
ATOM     12  O   UNL     1       4.536  -0.958  -1.484  1.00  0.00    -0.109 OA
ENDBRANCH   9  10
ENDBRANCH   8   9
BRANCH   4  13
ATOM     13  O   UNL     1      -2.905   0.230   0.507  1.00  0.00    -0.305 OA
BRANCH  13  14
ATOM     14  N   UNL     1      -4.037  -0.507   0.222  1.00  0.00     0.294 N 
ATOM     15  O   UNL     1      -3.945  -1.766  -0.328  1.00  0.00    -0.109 OA
ATOM     16  O   UNL     1      -5.160  -0.033   0.485  1.00  0.00    -0.109 OA
ENDBRANCH  13  14
ENDBRANCH   4  13
TORSDOF 4
