REMARK SMILES O=C(O)C1N=C(c2ccccc2)c2cc(Cl)ccc2NC1=O
REMARK SMILES IDX 4 1 2 3 1 4 3 5 5 7 6 8 7 9 8 10 12 11 9 12 11 13 10 14
REMARK SMILES IDX 13 15 19 16 14 17 18 18 15 19 17 20 16 21 20 22 21 23 22 25
REMARK H PARENT 3 6 20 24
REMARK Flexibility Score: 90.00
ROOT
ATOM      1  C   UNL     1       2.250  -0.859  -0.807  1.00  0.00     0.304 CG0
ATOM      2  G   UNL     1       2.918  -0.275   0.409  1.00  0.00     0.000 G0
ENDROOT
BRANCH   1   3
ATOM      3  C   UNL     1       2.960  -2.084  -1.306  1.00  0.00     0.338 C 
ATOM      4  O   UNL     1       3.720  -2.008  -2.309  1.00  0.00    -0.249 OA
BRANCH   3   5
ATOM      5  O   UNL     1       2.811  -3.298  -0.641  1.00  0.00    -0.479 OA
ATOM      6  H   UNL     1       3.295  -4.128  -0.960  1.00  0.00     0.296 HD
ENDBRANCH   3   5
ENDBRANCH   1   3
BRANCH   1   7
ATOM      7  N   UNL     1       0.878  -1.210  -0.463  1.00  0.00    -0.259 NA
ATOM      8  C   UNL     1      -0.058  -0.363  -0.142  1.00  0.00     0.076 C 
BRANCH   8   9
ATOM      9  C   UNL     1      -1.402  -0.901   0.199  1.00  0.00     0.000 A 
ATOM     10  C   UNL     1      -1.853  -2.106  -0.374  1.00  0.00     0.010 A 
ATOM     11  C   UNL     1      -2.233  -0.234   1.119  1.00  0.00     0.010 A 
ATOM     12  C   UNL     1      -3.112  -2.619  -0.047  1.00  0.00     0.001 A 
ATOM     13  C   UNL     1      -3.491  -0.751   1.442  1.00  0.00     0.001 A 
ATOM     14  C   UNL     1      -3.931  -1.941   0.859  1.00  0.00     0.000 A 
ENDBRANCH   8   9
BRANCH   8  15
ATOM     15  C   UNL     1       0.185   1.111  -0.146  1.00  0.00     0.025 A 
ATOM     16  C   UNL     1       1.340   1.698   0.438  1.00  0.00     0.050 A 
ATOM     17  C   UNL     1      -0.790   1.951  -0.717  1.00  0.00     0.033 A 
ATOM     18  C   UNL     1       1.453   3.097   0.484  1.00  0.00     0.028 A 
ATOM     19  C   UNL     1      -0.649   3.340  -0.683  1.00  0.00     0.041 A 
ATOM     20  C   UNL     1       0.468   3.911  -0.075  1.00  0.00     0.023 A 
ATOM     21  Cl  UNL     1      -1.882   4.365  -1.393  1.00  0.00    -0.084 Cl
BRANCH  16  22
ATOM     22  N   UNL     1       2.396   0.912   1.016  1.00  0.00    -0.323 N 
ATOM     23  C   UNL     1       2.918  -0.275   0.409  1.00  0.00     0.260 CG0
ATOM     24  H   UNL     1       2.941   1.325   1.807  1.00  0.00     0.170 HD
ATOM     25  O   UNL     1       3.936  -0.826   0.911  1.00  0.00    -0.272 OA
ATOM     26  G   UNL     1       2.250  -0.859  -0.807  1.00  0.00     0.000 G0
ENDBRANCH  16  22
ENDBRANCH   8  15
ENDBRANCH   1   7
TORSDOF 3
