REMARK SMILES Cc1ncc(C[n+]2csc(CCO)c2C)c(N)n1
REMARK SMILES IDX 15 1 14 2 10 3 9 4 8 5 7 6 11 7 12 8 13 9 6 11 5 12 4 13
REMARK SMILES IDX 16 14 3 15 18 16 2 17 1 18 17 19
REMARK H PARENT 13 10 17 20 17 21
REMARK Flexibility Score: inf
ROOT
ATOM      1  C   UNL     1      -1.905   1.654  -0.926  1.00  0.00     0.125 C 
ATOM      2  C   UNL     1      -1.627   0.391  -0.151  1.00  0.00     0.192 A 
ATOM      3  C   UNL     1      -2.513  -0.696  -0.098  1.00  0.00     0.079 A 
ATOM      4  S   UNL     1      -1.855  -1.858   0.922  1.00  0.00    -0.075 S 
ATOM      5  C   UNL     1      -0.464  -0.978   1.235  1.00  0.00     0.378 A 
ATOM      6  N   UNL     1      -0.468   0.200   0.561  1.00  0.00    -0.188 N 
ENDROOT
BRANCH   3   7
ATOM      7  C   UNL     1      -3.867  -0.825  -0.740  1.00  0.00     0.082 C 
BRANCH   7   8
ATOM      8  C   UNL     1      -4.979  -0.370   0.205  1.00  0.00     0.162 C 
BRANCH   8   9
ATOM      9  O   UNL     1      -4.847   0.995   0.490  1.00  0.00    -0.396 OA
ATOM     10  H   UNL     1      -5.590   1.220   1.109  1.00  0.00     0.210 HD
ENDBRANCH   8   9
ENDBRANCH   7   8
ENDBRANCH   3   7
BRANCH   6  11
ATOM     11  C   UNL     1       0.612   1.194   0.692  1.00  0.00     0.400 C 
BRANCH  11  12
ATOM     12  C   UNL     1       1.978   0.544   0.677  1.00  0.00     0.077 A 
ATOM     13  C   UNL     1       2.739   0.499   1.854  1.00  0.00     0.127 A 
ATOM     14  C   UNL     1       2.520  -0.059  -0.480  1.00  0.00     0.136 A 
ATOM     15  N   UNL     1       3.959  -0.095   1.860  1.00  0.00    -0.241 NA
ATOM     16  N   UNL     1       3.748  -0.640  -0.416  1.00  0.00    -0.216 NA
ATOM     17  C   UNL     1       4.472  -0.650   0.732  1.00  0.00     0.127 A 
ATOM     18  C   UNL     1       5.799  -1.331   0.773  1.00  0.00     0.090 C 
BRANCH  14  19
ATOM     19  N   UNL     1       1.811  -0.085  -1.722  1.00  0.00    -0.383 N 
ATOM     20  H   UNL     1       2.243  -0.543  -2.556  1.00  0.00     0.158 HD
ATOM     21  H   UNL     1       0.864   0.334  -1.836  1.00  0.00     0.158 HD
ENDBRANCH  14  19
ENDBRANCH  11  12
ENDBRANCH   6  11
TORSDOF 6
