REMARK SMILES CC1=C(/C=C/C(C)=C/C=C/C(C)=C/C(=O)O)C(C)(C)CCC1
REMARK SMILES IDX 9 1 10 2 8 3 7 4 6 5 5 6 4 7 3 8 2 9 17 10 1 11 22 12 20 13
REMARK SMILES IDX 18 14 19 15 21 16 11 17 12 18 13 19 14 20 15 21 16 22
REMARK H PARENT 16 23
REMARK Flexibility Score: inf
ROOT
ATOM      1  C   UNL     1       3.211   1.142  -1.750  1.00  0.00     0.001 C 
ATOM      2  C   UNL     1       4.389   1.592  -1.296  1.00  0.00     0.003 C 
ENDROOT
BRANCH   1   3
ATOM      3  C   UNL     1       2.050   0.823  -0.890  1.00  0.00     0.003 C 
ATOM      4  C   UNL     1       1.536  -1.246  -2.189  1.00  0.00     0.044 C 
ATOM      5  C   UNL     1       1.217  -0.213  -1.130  1.00  0.00    -0.051 C 
BRANCH   5   6
ATOM      6  C   UNL     1      -0.053  -0.288  -0.358  1.00  0.00     0.004 C 
ATOM      7  C   UNL     1      -1.124  -0.981  -0.774  1.00  0.00     0.004 C 
BRANCH   7   8
ATOM      8  C   UNL     1      -2.412  -0.953  -0.029  1.00  0.00    -0.043 C 
ATOM      9  C   UNL     1      -2.804  -2.063   0.661  1.00  0.00    -0.070 C 
ATOM     10  C   UNL     1      -3.370   0.234  -0.274  1.00  0.00    -0.010 C 
ATOM     11  C   UNL     1      -1.910  -3.279   0.762  1.00  0.00     0.040 C 
ATOM     12  C   UNL     1      -4.075  -2.091   1.484  1.00  0.00     0.031 C 
ATOM     13  C   UNL     1      -4.527   0.264   0.764  1.00  0.00     0.011 C 
ATOM     14  C   UNL     1      -3.948   0.107  -1.704  1.00  0.00     0.016 C 
ATOM     15  C   UNL     1      -2.624   1.585  -0.171  1.00  0.00     0.016 C 
ATOM     16  C   UNL     1      -5.136  -1.115   0.988  1.00  0.00     0.005 C 
ENDBRANCH   7   8
ENDBRANCH   5   6
ENDBRANCH   1   3
BRANCH   2  17
ATOM     17  C   UNL     1       4.736   1.761   0.134  1.00  0.00    -0.044 C 
ATOM     18  C   UNL     1       3.955   2.734   0.983  1.00  0.00     0.044 C 
ATOM     19  C   UNL     1       5.809   1.086   0.594  1.00  0.00     0.096 C 
BRANCH  19  20
ATOM     20  C   UNL     1       6.360   1.132   1.963  1.00  0.00     0.328 C 
ATOM     21  O   UNL     1       5.787   1.757   2.894  1.00  0.00    -0.247 OA
BRANCH  20  22
ATOM     22  O   UNL     1       7.550   0.458   2.221  1.00  0.00    -0.478 OA
ATOM     23  H   UNL     1       7.969   0.465   3.143  1.00  0.00     0.297 HD
ENDBRANCH  20  22
ENDBRANCH  19  20
ENDBRANCH   2  17
TORSDOF 6
