REMARK SMILES CCC[C@H](N[C@@H](C)C(=O)N1[C@H](C(=O)O)C[C@@H]2CCCC[C@@H]21)C(=O)OCC
REMARK SMILES IDX 6 1 7 2 8 3 9 4 10 5 16 6 15 7 21 8 17 9 11 10 20 11 18 12
REMARK SMILES IDX 19 13 12 14 13 15 14 16 5 18 4 20 3 21 2 22 1 23 22 24 23 25
REMARK SMILES IDX 24 26 25 27 26 28
REMARK H PARENT 14 17 5 19
REMARK Flexibility Score: inf
ROOT
ATOM      1  C   UNL     1       0.581   1.481  -1.166  1.00  0.00     0.141 C 
ATOM      2  C   UNL     1       0.622   2.200  -2.515  1.00  0.00     0.035 C 
ENDROOT
BRANCH   1   3
ATOM      3  C   UNL     1      -0.425   0.349  -1.231  1.00  0.00     0.240 C 
ATOM      4  O   UNL     1      -0.141  -0.668  -1.922  1.00  0.00    -0.273 OA
BRANCH   3   5
ATOM      5  N   UNL     1      -1.708   0.414  -0.569  1.00  0.00    -0.324 N 
ATOM      6  C   UNL     1      -4.059   0.181  -0.548  1.00  0.00     0.014 C 
ATOM      7  C   UNL     1      -3.690   1.240   0.488  1.00  0.00     0.043 C 
ATOM      8  C   UNL     1      -2.749  -0.579  -0.813  1.00  0.00     0.089 C 
ATOM      9  C   UNL     1      -5.274  -0.695  -0.177  1.00  0.00     0.006 C 
ATOM     10  C   UNL     1      -2.216   1.557   0.197  1.00  0.00     0.195 C 
ATOM     11  C   UNL     1      -2.522  -1.785   0.123  1.00  0.00     0.025 C 
ATOM     12  C   UNL     1      -4.932  -1.831   0.789  1.00  0.00     0.000 C 
ATOM     13  C   UNL     1      -3.767  -2.658   0.248  1.00  0.00     0.002 C 
BRANCH  10  14
ATOM     14  C   UNL     1      -1.453   1.753   1.479  1.00  0.00     0.326 C 
ATOM     15  O   UNL     1      -1.096   2.911   1.825  1.00  0.00    -0.250 OA
BRANCH  14  16
ATOM     16  O   UNL     1      -1.179   0.669   2.307  1.00  0.00    -0.480 OA
ATOM     17  H   UNL     1      -0.670   0.793   3.173  1.00  0.00     0.296 HD
ENDBRANCH  14  16
ENDBRANCH  10  14
ENDBRANCH   3   5
ENDBRANCH   1   3
BRANCH   1  18
ATOM     18  N   UNL     1       1.934   0.993  -0.837  1.00  0.00    -0.293 NA
ATOM     19  H   UNL     1       2.219   0.194  -1.448  1.00  0.00     0.124 HD
BRANCH  18  20
ATOM     20  C   UNL     1       2.158   0.717   0.598  1.00  0.00     0.165 C 
BRANCH  20  21
ATOM     21  C   UNL     1       1.654  -0.677   1.057  1.00  0.00     0.031 C 
BRANCH  21  22
ATOM     22  C   UNL     1       2.329  -1.876   0.368  1.00  0.00    -0.001 C 
ATOM     23  C   UNL     1       1.838  -3.192   0.964  1.00  0.00     0.004 C 
ENDBRANCH  21  22
ENDBRANCH  20  21
BRANCH  20  24
ATOM     24  C   UNL     1       3.617   0.885   0.917  1.00  0.00     0.323 C 
ATOM     25  O   UNL     1       3.962   1.270   2.068  1.00  0.00    -0.250 OA
BRANCH  24  26
ATOM     26  O   UNL     1       4.582   0.565  -0.047  1.00  0.00    -0.465 OA
BRANCH  26  27
ATOM     27  C   UNL     1       5.984   0.714   0.166  1.00  0.00     0.229 C 
ATOM     28  C   UNL     1       6.387   2.181   0.082  1.00  0.00     0.049 C 
ENDBRANCH  26  27
ENDBRANCH  24  26
ENDBRANCH  20  24
ENDBRANCH  18  20
ENDBRANCH   1  18
TORSDOF 11
