REMARK SMILES COc1ccccc1OCC(O)COC(N)=O
REMARK SMILES IDX 10 1 9 2 8 3 3 4 4 5 7 6 5 7 6 8 2 9 1 10 11 11 12 12 13 14
REMARK SMILES IDX 14 15 15 16 16 17 17 18
REMARK H PARENT 12 13 16 19 16 20
REMARK Flexibility Score: inf
ROOT
ATOM      1  C   UNL     1       0.359  -1.072   0.401  1.00  0.00     0.265 C 
ENDROOT
BRANCH   1   2
ATOM      2  O   UNL     1      -0.528   0.011   0.134  1.00  0.00    -0.487 OA
BRANCH   2   3
ATOM      3  C   UNL     1      -1.881  -0.135  -0.213  1.00  0.00     0.161 A 
ATOM      4  C   UNL     1      -2.638   1.025  -0.446  1.00  0.00     0.160 A 
ATOM      5  C   UNL     1      -3.999   0.909  -0.795  1.00  0.00     0.050 A 
ATOM      6  C   UNL     1      -2.491  -1.400  -0.330  1.00  0.00     0.050 A 
ATOM      7  C   UNL     1      -4.592  -0.350  -0.909  1.00  0.00     0.004 A 
ATOM      8  C   UNL     1      -3.840  -1.502  -0.677  1.00  0.00     0.004 A 
BRANCH   4   9
ATOM      9  O   UNL     1      -2.005   2.272  -0.322  1.00  0.00    -0.493 OA
ATOM     10  C   UNL     1      -2.646   3.526  -0.528  1.00  0.00     0.278 C 
ENDBRANCH   4   9
ENDBRANCH   2   3
ENDBRANCH   1   2
BRANCH   1  11
ATOM     11  C   UNL     1       1.746  -0.524   0.742  1.00  0.00     0.189 C 
BRANCH  11  12
ATOM     12  O   UNL     1       1.652   0.283   1.888  1.00  0.00    -0.386 OA
ATOM     13  H   UNL     1       2.434   0.896   1.873  1.00  0.00     0.211 HD
ENDBRANCH  11  12
BRANCH  11  14
ATOM     14  C   UNL     1       2.732  -1.676   0.994  1.00  0.00     0.270 C 
BRANCH  14  15
ATOM     15  O   UNL     1       4.036  -1.176   1.289  1.00  0.00    -0.447 OA
BRANCH  15  16
ATOM     16  C   UNL     1       4.899  -0.654   0.320  1.00  0.00     0.404 C 
ATOM     17  N   UNL     1       6.163  -0.130   0.715  1.00  0.00    -0.335 N 
ATOM     18  O   UNL     1       4.573  -0.647  -0.899  1.00  0.00    -0.225 OA
ATOM     19  H   UNL     1       6.441  -0.133   1.721  1.00  0.00     0.163 HD
ATOM     20  H   UNL     1       6.820   0.262   0.004  1.00  0.00     0.163 HD
ENDBRANCH  15  16
ENDBRANCH  14  15
ENDBRANCH  11  14
ENDBRANCH   1  11
TORSDOF 8
