REMARK SMILES CC(c1cc2ccccc2s1)N(O)C(N)=O
REMARK SMILES IDX 1 1 2 2 12 3 13 4 14 6 15 7 16 8 3 11 4 12 11 13 5 14 10 15
REMARK SMILES IDX 6 16 9 17 7 18 8 19
REMARK H PARENT 13 5 15 9 15 10
REMARK Flexibility Score: inf
ROOT
ATOM      1  C   UNL     1      -2.204  -1.081  -1.635  1.00  0.00     0.040 C 
ATOM      2  C   UNL     1      -1.556   0.087  -0.889  1.00  0.00     0.154 C 
ENDROOT
BRANCH   2   3
ATOM      3  N   UNL     1      -2.296   0.367   0.351  1.00  0.00    -0.198 N 
BRANCH   3   4
ATOM      4  O   UNL     1      -1.983  -0.310   1.485  1.00  0.00    -0.284 OA
ATOM      5  H   UNL     1      -2.538  -1.131   1.457  1.00  0.00     0.246 HD
ENDBRANCH   3   4
BRANCH   3   6
ATOM      6  C   UNL     1      -3.403   1.287   0.369  1.00  0.00     0.339 C 
ATOM      7  N   UNL     1      -4.091   1.571   1.588  1.00  0.00    -0.350 N 
ATOM      8  O   UNL     1      -3.780   1.851  -0.694  1.00  0.00    -0.246 OA
ATOM      9  H   UNL     1      -4.897   2.235   1.593  1.00  0.00     0.161 HD
ATOM     10  H   UNL     1      -3.800   1.131   2.489  1.00  0.00     0.161 HD
ENDBRANCH   3   6
ENDBRANCH   2   3
BRANCH   2  11
ATOM     11  C   UNL     1      -0.102  -0.179  -0.592  1.00  0.00     0.031 A 
ATOM     12  C   UNL     1       0.901   0.792  -0.597  1.00  0.00     0.026 A 
ATOM     13  S   UNL     1       0.554  -1.655  -0.070  1.00  0.00    -0.138 S 
ATOM     14  C   UNL     1       2.143   0.283  -0.204  1.00  0.00    -0.007 A 
ATOM     15  C   UNL     1       2.113  -1.066   0.119  1.00  0.00     0.035 A 
ATOM     16  C   UNL     1       3.338   1.002  -0.113  1.00  0.00     0.009 A 
ATOM     17  C   UNL     1       3.251  -1.751   0.540  1.00  0.00     0.019 A 
ATOM     18  C   UNL     1       4.500   0.332   0.307  1.00  0.00     0.001 A 
ATOM     19  C   UNL     1       4.457  -1.038   0.632  1.00  0.00     0.001 A 
ENDBRANCH   2  11
TORSDOF 4
