REMARK SMILES C1CNCCN1
REMARK SMILES IDX 2 1 1 2 6 3 5 4 4 5 3 6
REMARK H PARENT 6 7 3 8
REMARK Flexibility Score: inf
ROOT
ATOM      1  C   UNL     1       1.424   0.072  -0.130  1.00  0.00     0.096 C 
ATOM      2  C   UNL     1       0.673  -1.263  -0.006  1.00  0.00     0.096 C 
ATOM      3  N   UNL     1      -0.576  -1.099   0.748  1.00  0.00    -0.314 NA
ATOM      4  C   UNL     1      -1.424  -0.072   0.130  1.00  0.00     0.096 C 
ATOM      5  C   UNL     1      -0.673   1.263   0.006  1.00  0.00     0.096 C 
ATOM      6  N   UNL     1       0.576   1.099  -0.748  1.00  0.00    -0.314 NA
ATOM      7  H   UNL     1      -0.343  -0.801   1.725  1.00  0.00     0.122 HD
ATOM      8  H   UNL     1       0.343   0.801  -1.725  1.00  0.00     0.122 HD
ENDROOT
TORSDOF 0
