REMARK SMILES C[C@]12C=CC(=O)C=C1CC[C@@H]1[C@@H]2[C@@H](O)C[C@@]2(C)[C@H]1CC[C@]2(O)C(=O)CO
REMARK SMILES IDX 23 1 24 2 21 3 18 4 19 5 16 6 11 7 20 8 17 9 15 10 12 11
REMARK SMILES IDX 10 12 13 13 2 14 9 15 8 16 3 17 1 18 7 19 4 20 5 21 6 22
REMARK SMILES IDX 22 23 14 25 25 27 26 28
REMARK H PARENT 22 24 14 26 26 29
REMARK Flexibility Score: inf
ROOT
ATOM      1  C   UNL     1       4.362  -0.192   0.537  1.00  0.00     0.190 C 
ATOM      2  O   UNL     1       5.273  -0.244  -0.277  1.00  0.00    -0.294 OA
ENDROOT
BRANCH   1   3
ATOM      3  C   UNL     1       3.105   0.643   0.234  1.00  0.00     0.131 C 
ATOM      4  C   UNL     1       0.900   0.840  -0.658  1.00  0.00     0.002 C 
ATOM      5  C   UNL     1       1.789   1.458  -1.729  1.00  0.00     0.008 C 
ATOM      6  C   UNL     1       1.805  -0.207   0.032  1.00  0.00     0.009 C 
ATOM      7  C   UNL     1      -0.498   0.287  -1.036  1.00  0.00    -0.000 C 
ATOM      8  C   UNL     1       3.200   1.438  -1.112  1.00  0.00     0.044 C 
ATOM      9  C   UNL     1       2.143  -1.440  -0.877  1.00  0.00     0.015 C 
ATOM     10  C   UNL     1       1.102  -0.685   1.338  1.00  0.00     0.042 C 
ATOM     11  C   UNL     1      -1.215  -0.119   0.295  1.00  0.00     0.035 C 
ATOM     12  C   UNL     1      -1.345   1.269  -1.902  1.00  0.00     0.009 C 
ATOM     13  C   UNL     1      -0.375  -1.141   1.140  1.00  0.00     0.119 C 
ATOM     14  C   UNL     1      -2.746  -0.414   0.086  1.00  0.00     0.013 C 
ATOM     15  C   UNL     1      -2.548   1.900  -1.188  1.00  0.00     0.032 C 
ATOM     16  C   UNL     1      -3.376   0.901  -0.408  1.00  0.00    -0.056 C 
ATOM     17  C   UNL     1      -3.402  -0.888   1.384  1.00  0.00    -0.012 C 
ATOM     18  C   UNL     1      -3.030  -1.511  -0.967  1.00  0.00     0.021 C 
ATOM     19  C   UNL     1      -4.625   1.251  -0.058  1.00  0.00     0.052 C 
ATOM     20  C   UNL     1      -4.647  -0.541   1.720  1.00  0.00     0.048 C 
ATOM     21  C   UNL     1      -5.357   0.482   0.950  1.00  0.00     0.178 C 
ATOM     22  O   UNL     1      -6.563   0.743   1.199  1.00  0.00    -0.290 OA
BRANCH   3  23
ATOM     23  O   UNL     1       2.909   1.569   1.281  1.00  0.00    -0.381 OA
ATOM     24  H   UNL     1       3.732   2.119   1.361  1.00  0.00     0.212 HD
ENDBRANCH   3  23
BRANCH  13  25
ATOM     25  O   UNL     1      -0.442  -2.469   0.682  1.00  0.00    -0.393 OA
ATOM     26  H   UNL     1      -0.504  -2.466  -0.302  1.00  0.00     0.210 HD
ENDBRANCH  13  25
ENDBRANCH   1   3
BRANCH   1  27
ATOM     27  C   UNL     1       4.505  -0.997   1.805  1.00  0.00     0.234 C 
BRANCH  27  28
ATOM     28  O   UNL     1       4.007  -0.289   2.906  1.00  0.00    -0.388 OA
ATOM     29  H   UNL     1       4.091  -0.897   3.686  1.00  0.00     0.211 HD
ENDBRANCH  27  28
ENDBRANCH   1  27
TORSDOF 5
