REMARK SMILES COc1ccc(OC)c(C(O)C(C)N)c1
REMARK SMILES IDX 10 1 9 2 3 3 15 4 4 5 5 6 6 7 2 8 1 9 7 10 8 11 11 12 12 14
REMARK SMILES IDX 13 15 14 16
REMARK H PARENT 11 13 14 17 14 18
REMARK Flexibility Score: inf
ROOT
ATOM      1  C   UNL     1      -1.621  -0.587  -0.791  1.00  0.00     0.165 C 
ENDROOT
BRANCH   1   2
ATOM      2  C   UNL     1      -0.177  -0.197  -0.514  1.00  0.00     0.028 A 
ATOM      3  C   UNL     1       2.123  -0.885  -0.061  1.00  0.00     0.119 A 
ATOM      4  C   UNL     1       0.791  -1.204  -0.339  1.00  0.00     0.056 A 
ATOM      5  C   UNL     1       2.496   0.464   0.052  1.00  0.00     0.050 A 
ATOM      6  C   UNL     1       1.546   1.474  -0.107  1.00  0.00     0.050 A 
ATOM      7  C   UNL     1       0.202   1.158  -0.385  1.00  0.00     0.124 A 
BRANCH   3   8
ATOM      8  O   UNL     1       3.039  -1.935   0.097  1.00  0.00    -0.497 OA
ATOM      9  C   UNL     1       4.423  -1.759   0.384  1.00  0.00     0.278 C 
ENDBRANCH   3   8
BRANCH   7  10
ATOM     10  O   UNL     1      -0.773   2.159  -0.531  1.00  0.00    -0.496 OA
ATOM     11  C   UNL     1      -0.527   3.555  -0.402  1.00  0.00     0.278 C 
ENDBRANCH   7  10
ENDBRANCH   1   2
BRANCH   1  12
ATOM     12  O   UNL     1      -1.657  -1.571  -1.793  1.00  0.00    -0.387 OA
ATOM     13  H   UNL     1      -1.429  -1.119  -2.648  1.00  0.00     0.211 HD
ENDBRANCH   1  12
BRANCH   1  14
ATOM     14  C   UNL     1      -2.313  -1.127   0.489  1.00  0.00     0.081 C 
ATOM     15  C   UNL     1      -2.372  -0.067   1.597  1.00  0.00     0.027 C 
BRANCH  14  16
ATOM     16  N   UNL     1      -3.675  -1.586   0.201  1.00  0.00    -0.325 NA
ATOM     17  H   UNL     1      -3.629  -2.427  -0.419  1.00  0.00     0.119 HD
ATOM     18  H   UNL     1      -4.194  -0.838  -0.316  1.00  0.00     0.119 HD
ENDBRANCH  14  16
ENDBRANCH   1  14
TORSDOF 6
