REMARK SMILES O=NN(CCCl)C(=O)NCCCl
REMARK SMILES IDX 9 1 7 2 8 3 10 5 11 6 12 7 3 8 4 9 5 10 6 11 2 12 1 13
REMARK H PARENT 9 4
REMARK Flexibility Score: inf
ROOT
ATOM      1  N   UNL     1       0.906  -0.454   0.463  1.00  0.00    -0.335 N 
ATOM      2  C   UNL     1      -0.181  -1.007  -0.292  1.00  0.00     0.340 C 
ATOM      3  O   UNL     1       0.060  -1.695  -1.321  1.00  0.00    -0.247 OA
ATOM      4  H   UNL     1       0.722  -0.080   1.420  1.00  0.00     0.165 HD
ENDROOT
BRANCH   1   5
ATOM      5  C   UNL     1       2.272  -0.454  -0.063  1.00  0.00     0.134 C 
BRANCH   5   6
ATOM      6  C   UNL     1       3.236   0.253   0.889  1.00  0.00     0.131 C 
ATOM      7  Cl  UNL     1       2.843   1.988   1.015  1.00  0.00    -0.125 Cl
ENDBRANCH   5   6
ENDBRANCH   1   5
BRANCH   2   8
ATOM      8  N   UNL     1      -1.547  -0.785   0.113  1.00  0.00    -0.177 N 
BRANCH   8   9
ATOM      9  C   UNL     1      -1.985   0.522   0.613  1.00  0.00     0.169 C 
BRANCH   9  10
ATOM     10  C   UNL     1      -2.506   1.395  -0.528  1.00  0.00     0.133 C 
ATOM     11  Cl  UNL     1      -1.179   1.904  -1.606  1.00  0.00    -0.125 Cl
ENDBRANCH   9  10
ENDBRANCH   8   9
BRANCH   8  12
ATOM     12  N   UNL     1      -2.536  -1.754  -0.136  1.00  0.00     0.061 NA
ATOM     13  O   UNL     1      -2.245  -2.903  -0.529  1.00  0.00    -0.125 OA
ENDBRANCH   8  12
ENDBRANCH   2   8
TORSDOF 6
