REMARK SMILES C[C@@H](O[C@H]1OCCN(Cc2n[nH]c(=O)[nH]2)[C@H]1c1ccc(F)cc1)c1cc(C(F)(F)F)cc(C(F)(F)F)c1
REMARK SMILES IDX 3 1 2 2 1 3 24 4 37 5 25 6 32 7 26 8 31 9 33 10 34 11 35 12
REMARK SMILES IDX 36 13 27 14 28 15 29 16 30 17 4 18 5 19 16 20 6 21 8 22 7 23
REMARK SMILES IDX 17 24 18 25 23 26 19 27 22 28 20 29 21 30 9 31 10 32 11 33
REMARK SMILES IDX 15 34 12 35 13 36 14 39
REMARK H PARENT 15 37 12 38
REMARK Flexibility Score: inf
ROOT
ATOM      1  O   UNL     1       0.872   0.714  -0.394  1.00  0.00    -0.343 OA
ENDROOT
BRANCH   1   2
ATOM      2  C   UNL     1       1.960   1.353   0.259  1.00  0.00     0.148 C 
ATOM      3  C   UNL     1       2.414   2.545  -0.583  1.00  0.00     0.044 C 
BRANCH   2   4
ATOM      4  C   UNL     1       3.097   0.367   0.412  1.00  0.00    -0.018 A 
ATOM      5  C   UNL     1       3.469  -0.462  -0.660  1.00  0.00     0.019 A 
ATOM      6  C   UNL     1       3.827   0.309   1.610  1.00  0.00     0.019 A 
ATOM      7  C   UNL     1       4.539  -1.362  -0.534  1.00  0.00     0.056 A 
ATOM      8  C   UNL     1       4.900  -0.586   1.754  1.00  0.00     0.056 A 
ATOM      9  C   UNL     1       5.267  -1.397   0.668  1.00  0.00     0.026 A 
BRANCH   7  10
ATOM     10  C   UNL     1       4.979  -2.200  -1.709  1.00  0.00     0.416 C 
ATOM     11  F   UNL     1       5.474  -3.418  -1.277  1.00  0.00    -0.166 F 
ATOM     12  F   UNL     1       3.920  -2.444  -2.566  1.00  0.00    -0.166 F 
ATOM     13  F   UNL     1       5.971  -1.530  -2.399  1.00  0.00    -0.166 F 
ENDBRANCH   7  10
BRANCH   8  14
ATOM     14  C   UNL     1       5.718  -0.593   3.022  1.00  0.00     0.416 C 
ATOM     15  F   UNL     1       6.721   0.351   2.921  1.00  0.00    -0.166 F 
ATOM     16  F   UNL     1       6.288  -1.837   3.231  1.00  0.00    -0.166 F 
ATOM     17  F   UNL     1       4.925  -0.294   4.117  1.00  0.00    -0.166 F 
ENDBRANCH   8  14
ENDBRANCH   2   4
ENDBRANCH   1   2
BRANCH   1  18
ATOM     18  C   UNL     1      -0.318   0.787   0.368  1.00  0.00     0.272 C 
ATOM     19  O   UNL     1      -0.756   2.133   0.447  1.00  0.00    -0.349 OA
ATOM     20  C   UNL     1      -1.393  -0.117  -0.296  1.00  0.00     0.144 C 
ATOM     21  C   UNL     1      -1.916   2.219   1.243  1.00  0.00     0.179 C 
ATOM     22  N   UNL     1      -2.709   0.015   0.374  1.00  0.00    -0.282 NA
ATOM     23  C   UNL     1      -3.070   1.430   0.608  1.00  0.00     0.114 C 
BRANCH  20  24
ATOM     24  C   UNL     1      -1.574   0.066  -1.798  1.00  0.00    -0.025 A 
ATOM     25  C   UNL     1      -2.098  -1.009  -2.539  1.00  0.00     0.008 A 
ATOM     26  C   UNL     1      -1.320   1.283  -2.467  1.00  0.00     0.008 A 
ATOM     27  C   UNL     1      -2.334  -0.884  -3.911  1.00  0.00     0.039 A 
ATOM     28  C   UNL     1      -1.555   1.401  -3.840  1.00  0.00     0.039 A 
ATOM     29  C   UNL     1      -2.060   0.320  -4.562  1.00  0.00     0.123 A 
ATOM     30  F   UNL     1      -2.292   0.441  -5.892  1.00  0.00    -0.207 F 
ENDBRANCH  20  24
BRANCH  22  31
ATOM     31  C   UNL     1      -2.820  -0.809   1.599  1.00  0.00     0.162 C 
BRANCH  31  32
ATOM     32  C   UNL     1      -4.258  -1.108   1.884  1.00  0.00     0.145 A 
ATOM     33  N   UNL     1      -4.931  -0.632   2.954  1.00  0.00    -0.157 NA
ATOM     34  N   UNL     1      -5.044  -1.857   1.084  1.00  0.00    -0.292 N 
ATOM     35  N   UNL     1      -6.168  -1.088   2.840  1.00  0.00    -0.227 N 
ATOM     36  C   UNL     1      -6.225  -1.820   1.718  1.00  0.00     0.340 A 
ATOM     37  H   UNL     1      -4.794  -2.343   0.194  1.00  0.00     0.173 HD
ATOM     38  H   UNL     1      -6.942  -0.898   3.514  1.00  0.00     0.195 HD
ATOM     39  O   UNL     1      -7.263  -2.402   1.309  1.00  0.00    -0.246 OA
ENDBRANCH  31  32
ENDBRANCH  22  31
ENDBRANCH   1  18
TORSDOF 8
