REMARK SMILES O=C(N[C@H]1CCS[C@H]2CCC[C@@H](C(=O)O)N2C1=O)[C@@H](S)Cc1ccccc1
REMARK SMILES IDX 4 1 17 2 18 3 16 4 8 5 9 6 10 7 12 8 11 9 7 10 6 11 13 13
REMARK SMILES IDX 14 14 15 15 5 17 3 19 2 20 1 22 19 23 20 24 21 26 22 27
REMARK SMILES IDX 23 28 27 29 24 30 26 31 25 32
REMARK H PARENT 15 16 3 21 20 25
REMARK Flexibility Score: 90.00
ROOT
ATOM      1  C   UNL     1      -0.684   0.676   0.079  1.00  0.00     0.172 C 
ENDROOT
BRANCH   1   2
ATOM      2  C   UNL     1      -1.701  -0.071  -0.753  1.00  0.00     0.246 C 
ATOM      3  O   UNL     1      -1.330  -0.652  -1.811  1.00  0.00    -0.272 OA
BRANCH   2   4
ATOM      4  N   UNL     1      -3.093  -0.106  -0.378  1.00  0.00    -0.315 N 
ATOM      5  C   UNL     1      -3.692   1.012   0.378  1.00  0.00     0.144 C 
ATOM      6  C   UNL     1      -5.212   0.840   0.536  1.00  0.00     0.036 C 
ATOM      7  C   UNL     1      -5.582  -0.550   1.072  1.00  0.00     0.006 C 
ATOM      8  C   UNL     1      -3.910  -1.272  -0.765  1.00  0.00     0.196 C 
ATOM      9  C   UNL     1      -4.783  -1.704   0.428  1.00  0.00     0.037 C 
BRANCH   5  10
ATOM     10  S   UNL     1      -3.391   2.595  -0.499  1.00  0.00    -0.137 SA
BRANCH  10  11
ATOM     11  C   UNL     1      -1.787   2.982   0.284  1.00  0.00     0.074 CG0
ATOM     12  G   UNL     1      -0.636   2.164  -0.312  1.00  0.00     0.000 G0
ENDBRANCH  10  11
ENDBRANCH   5  10
BRANCH   8  13
ATOM     13  C   UNL     1      -4.720  -0.980  -2.005  1.00  0.00     0.326 C 
ATOM     14  O   UNL     1      -4.347  -0.086  -2.812  1.00  0.00    -0.250 OA
BRANCH  13  15
ATOM     15  O   UNL     1      -5.848  -1.741  -2.300  1.00  0.00    -0.480 OA
ATOM     16  H   UNL     1      -6.388  -1.566  -3.139  1.00  0.00     0.296 HD
ENDBRANCH  13  15
ENDBRANCH   8  13
ENDBRANCH   2   4
ENDBRANCH   1   2
BRANCH   1  17
ATOM     17  C   UNL     1      -0.636   2.164  -0.312  1.00  0.00     0.046 CG0
ATOM     18  G   UNL     1      -1.787   2.982   0.284  1.00  0.00     0.000 G0
ENDBRANCH   1  17
BRANCH   1  19
ATOM     19  N   UNL     1       0.648   0.086  -0.107  1.00  0.00    -0.343 N 
ATOM     20  C   UNL     1       1.513  -0.260   0.989  1.00  0.00     0.233 C 
ATOM     21  H   UNL     1       1.031   0.027  -1.078  1.00  0.00     0.164 HD
ATOM     22  O   UNL     1       1.110  -0.149   2.179  1.00  0.00    -0.274 OA
BRANCH  20  23
ATOM     23  C   UNL     1       2.915  -0.741   0.732  1.00  0.00     0.137 C 
BRANCH  23  24
ATOM     24  S   UNL     1       2.877  -2.204  -0.362  1.00  0.00    -0.166 SA
ATOM     25  H   UNL     1       2.174  -2.985   0.576  1.00  0.00     0.103 HD
ENDBRANCH  23  24
BRANCH  23  26
ATOM     26  C   UNL     1       3.765   0.386   0.120  1.00  0.00     0.059 C 
BRANCH  26  27
ATOM     27  C   UNL     1       5.226   0.015   0.068  1.00  0.00    -0.046 A 
ATOM     28  C   UNL     1       5.802  -0.452  -1.125  1.00  0.00     0.004 A 
ATOM     29  C   UNL     1       6.018   0.104   1.225  1.00  0.00     0.004 A 
ATOM     30  C   UNL     1       7.153  -0.812  -1.161  1.00  0.00     0.000 A 
ATOM     31  C   UNL     1       7.368  -0.256   1.184  1.00  0.00     0.000 A 
ATOM     32  C   UNL     1       7.936  -0.713  -0.008  1.00  0.00     0.000 A 
ENDBRANCH  26  27
ENDBRANCH  23  26
ENDBRANCH  20  23
ENDBRANCH   1  19
TORSDOF 7
