REMARK SMILES NCCCNCCCCNCCCN
REMARK SMILES IDX 7 1 6 2 5 3 4 5 3 6 2 7 1 8 8 11 9 12 10 13 11 15 12 16
REMARK SMILES IDX 13 17 14 18
REMARK H PARENT 5 4 1 9 1 10 10 14 14 19 14 20
REMARK Flexibility Score: inf
ROOT
ATOM      1  C   UNL     1       0.600   0.629  -1.404  1.00  0.00     0.017 C 
ENDROOT
BRANCH   1   2
ATOM      2  C   UNL     1       2.009   0.053  -1.231  1.00  0.00     0.081 C 
BRANCH   2   3
ATOM      3  N   UNL     1       2.310  -0.140   0.194  1.00  0.00    -0.317 NA
ATOM      4  H   UNL     1       2.467   0.787   0.651  1.00  0.00     0.122 HD
BRANCH   3   5
ATOM      5  C   UNL     1       3.469  -1.021   0.416  1.00  0.00     0.082 C 
BRANCH   5   6
ATOM      6  C   UNL     1       4.799  -0.476  -0.148  1.00  0.00     0.030 C 
BRANCH   6   7
ATOM      7  C   UNL     1       5.221   0.902   0.399  1.00  0.00     0.079 C 
BRANCH   7   8
ATOM      8  N   UNL     1       5.392   0.903   1.851  1.00  0.00    -0.330 NA
ATOM      9  H   UNL     1       5.965   0.075   2.134  1.00  0.00     0.118 HD
ATOM     10  H   UNL     1       4.456   0.824   2.308  1.00  0.00     0.118 HD
ENDBRANCH   7   8
ENDBRANCH   6   7
ENDBRANCH   5   6
ENDBRANCH   3   5
ENDBRANCH   2   3
ENDBRANCH   1   2
BRANCH   1  11
ATOM     11  C   UNL     1      -0.482  -0.358  -0.945  1.00  0.00     0.017 C 
BRANCH  11  12
ATOM     12  C   UNL     1      -1.889   0.228  -1.162  1.00  0.00     0.081 C 
BRANCH  12  13
ATOM     13  N   UNL     1      -2.949  -0.695  -0.721  1.00  0.00    -0.317 NA
ATOM     14  H   UNL     1      -2.677  -1.681  -0.947  1.00  0.00     0.122 HD
BRANCH  13  15
ATOM     15  C   UNL     1      -3.233  -0.590   0.720  1.00  0.00     0.082 C 
BRANCH  15  16
ATOM     16  C   UNL     1      -4.301   0.479   0.998  1.00  0.00     0.030 C 
BRANCH  16  17
ATOM     17  C   UNL     1      -5.619   0.254   0.230  1.00  0.00     0.079 C 
BRANCH  17  18
ATOM     18  N   UNL     1      -6.302  -0.974   0.635  1.00  0.00    -0.330 NA
ATOM     19  H   UNL     1      -6.341  -1.023   1.679  1.00  0.00     0.118 HD
ATOM     20  H   UNL     1      -5.761  -1.798   0.289  1.00  0.00     0.118 HD
ENDBRANCH  17  18
ENDBRANCH  16  17
ENDBRANCH  15  16
ENDBRANCH  13  15
ENDBRANCH  12  13
ENDBRANCH  11  12
ENDBRANCH   1  11
TORSDOF 13
