REMARK SMILES Cc1ncc2n1-c1ccc(Cl)cc1C(c1ccccc1F)=NC2
REMARK SMILES IDX 1 1 2 2 3 3 4 4 5 5 23 6 22 7 14 8 13 9 7 10 8 11 9 12 10 13
REMARK SMILES IDX 11 14 12 15 6 16 15 17 16 18 20 19 17 20 19 21 21 22 18 23
REMARK H PARENT
REMARK Flexibility Score: inf
ROOT
ATOM      1  C   UNL     1      -3.681  -0.219   1.645  1.00  0.00     0.088 C 
ATOM      2  C   UNL     1      -2.986  -1.174   0.725  1.00  0.00     0.110 A 
ATOM      3  N   UNL     1      -3.250  -2.500   0.729  1.00  0.00    -0.241 NA
ATOM      4  C   UNL     1      -2.401  -3.017  -0.182  1.00  0.00     0.137 A 
ATOM      5  C   UNL     1      -1.649  -1.999  -0.723  1.00  0.00     0.064 A 
ATOM      6  C   UNL     1      -0.501  -2.130  -1.664  1.00  0.00     0.198 C 
ATOM      7  N   UNL     1       0.707  -1.678  -0.986  1.00  0.00    -0.278 NA
ATOM      8  C   UNL     1       0.923  -0.474  -0.531  1.00  0.00     0.077 C 
ATOM      9  C   UNL     1      -0.073   0.634  -0.698  1.00  0.00     0.026 A 
ATOM     10  C   UNL     1      -1.467   0.456  -0.480  1.00  0.00     0.057 A 
ATOM     11  C   UNL     1      -2.335   1.549  -0.659  1.00  0.00     0.029 A 
ATOM     12  C   UNL     1      -1.840   2.804  -1.010  1.00  0.00     0.023 A 
ATOM     13  C   UNL     1      -0.473   2.986  -1.208  1.00  0.00     0.041 A 
ATOM     14  Cl  UNL     1       0.146   4.565  -1.658  1.00  0.00    -0.084 Cl
ATOM     15  C   UNL     1       0.403   1.909  -1.060  1.00  0.00     0.033 A 
ATOM     16  N   UNL     1      -2.014  -0.838  -0.159  1.00  0.00    -0.298 N 
ENDROOT
BRANCH   8  17
ATOM     17  C   UNL     1       2.213  -0.208   0.160  1.00  0.00     0.036 A 
ATOM     18  C   UNL     1       2.254   0.660   1.268  1.00  0.00     0.013 A 
ATOM     19  C   UNL     1       3.406  -0.831  -0.263  1.00  0.00     0.132 A 
ATOM     20  C   UNL     1       3.459   0.907   1.931  1.00  0.00     0.001 A 
ATOM     21  C   UNL     1       4.608  -0.577   0.406  1.00  0.00     0.040 A 
ATOM     22  F   UNL     1       3.418  -1.660  -1.337  1.00  0.00    -0.206 F 
ATOM     23  C   UNL     1       4.635   0.290   1.501  1.00  0.00     0.003 A 
ENDBRANCH   8  17
TORSDOF 1
