REMARK SMILES CCN(CC)C(C)CN1c2ccccc2Sc2ccccc21
REMARK SMILES IDX 6 1 7 2 3 3 2 4 1 5 4 6 5 7 8 8 9 9 10 10 22 11 11 12 15 13
REMARK SMILES IDX 17 14 21 15 12 16 14 17 16 18 18 19 20 20 13 21 19 22
REMARK H PARENT
REMARK Flexibility Score: inf
ROOT
ATOM      1  C   UNL     1       1.230   0.354  -0.246  1.00  0.00     0.073 C 
ATOM      2  C   UNL     1       1.184  -0.464  -1.552  1.00  0.00     0.026 C 
ENDROOT
BRANCH   1   3
ATOM      3  N   UNL     1       2.604   0.579   0.301  1.00  0.00    -0.299 NA
BRANCH   3   4
ATOM      4  C   UNL     1       3.650  -0.440   0.032  1.00  0.00     0.081 C 
ATOM      5  C   UNL     1       3.451  -1.691   0.884  1.00  0.00     0.021 C 
ENDBRANCH   3   4
BRANCH   3   6
ATOM      6  C   UNL     1       3.092   1.966   0.124  1.00  0.00     0.081 C 
ATOM      7  C   UNL     1       3.398   2.315  -1.336  1.00  0.00     0.021 C 
ENDBRANCH   3   6
ENDBRANCH   1   3
BRANCH   1   8
ATOM      8  C   UNL     1       0.338  -0.276   0.844  1.00  0.00     0.141 C 
BRANCH   8   9
ATOM      9  N   UNL     1      -1.082  -0.287   0.450  1.00  0.00    -0.338 N 
ATOM     10  C   UNL     1      -1.845  -1.514   0.445  1.00  0.00     0.055 A 
ATOM     11  C   UNL     1      -1.792   0.930   0.124  1.00  0.00     0.055 A 
ATOM     12  C   UNL     1      -1.724  -2.449   1.488  1.00  0.00     0.027 A 
ATOM     13  C   UNL     1      -2.848  -1.696  -0.526  1.00  0.00     0.036 A 
ATOM     14  C   UNL     1      -2.796   0.896  -0.863  1.00  0.00     0.036 A 
ATOM     15  C   UNL     1      -1.597   2.111   0.863  1.00  0.00     0.027 A 
ATOM     16  C   UNL     1      -2.584  -3.550   1.551  1.00  0.00     0.002 A 
ATOM     17  C   UNL     1      -3.722  -2.785  -0.445  1.00  0.00     0.017 A 
ATOM     18  S   UNL     1      -2.955  -0.555  -1.908  1.00  0.00    -0.086 SA
ATOM     19  C   UNL     1      -3.614   2.010  -1.078  1.00  0.00     0.017 A 
ATOM     20  C   UNL     1      -2.402   3.230   0.626  1.00  0.00     0.002 A 
ATOM     21  C   UNL     1      -3.585  -3.714   0.590  1.00  0.00     0.001 A 
ATOM     22  C   UNL     1      -3.415   3.176  -0.335  1.00  0.00     0.001 A 
ENDBRANCH   8   9
ENDBRANCH   1   8
TORSDOF 5
