REMARK SMILES CC[N+](C)(CC)CCOC(=O)C(O)(c1ccccc1)C1CCCCC1
REMARK SMILES IDX 8 1 7 2 3 3 4 4 2 5 1 6 5 7 6 8 9 9 10 10 11 11 12 12 13 13
REMARK SMILES IDX 20 15 21 16 25 17 22 18 24 19 23 20 14 21 15 22 19 23 16 24
REMARK SMILES IDX 18 25 17 26
REMARK H PARENT 13 14
REMARK Flexibility Score: inf
ROOT
ATOM      1  C   UNL     1       1.762   0.160   0.361  1.00  0.00     0.294 C 
ENDROOT
BRANCH   1   2
ATOM      2  C   UNL     1       2.948   0.012  -0.612  1.00  0.00     0.305 C 
BRANCH   2   3
ATOM      3  N   UNL     1       4.301   0.300  -0.025  1.00  0.00    -0.324 N 
ATOM      4  C   UNL     1       4.424   1.757   0.263  1.00  0.00     0.334 C 
BRANCH   3   5
ATOM      5  C   UNL     1       4.530  -0.426   1.269  1.00  0.00     0.260 C 
ATOM      6  C   UNL     1       4.459  -1.963   1.189  1.00  0.00     0.071 C 
ENDBRANCH   3   5
BRANCH   3   7
ATOM      7  C   UNL     1       5.373  -0.106  -0.996  1.00  0.00     0.260 C 
ATOM      8  C   UNL     1       5.403   0.681  -2.321  1.00  0.00     0.071 C 
ENDBRANCH   3   7
ENDBRANCH   2   3
ENDBRANCH   1   2
BRANCH   1   9
ATOM      9  O   UNL     1       0.544   0.036  -0.365  1.00  0.00    -0.457 OA
BRANCH   9  10
ATOM     10  C   UNL     1      -0.712   0.157   0.242  1.00  0.00     0.343 C 
ATOM     11  O   UNL     1      -0.788   0.390   1.480  1.00  0.00    -0.248 OA
BRANCH  10  12
ATOM     12  C   UNL     1      -1.971  -0.065  -0.592  1.00  0.00     0.190 C 
BRANCH  12  13
ATOM     13  O   UNL     1      -1.673   0.309  -1.922  1.00  0.00    -0.374 OA
ATOM     14  H   UNL     1      -1.038  -0.355  -2.302  1.00  0.00     0.212 HD
ENDBRANCH  12  13
BRANCH  12  15
ATOM     15  C   UNL     1      -3.161   0.845  -0.123  1.00  0.00     0.037 C 
ATOM     16  C   UNL     1      -3.851   0.372   1.193  1.00  0.00     0.007 C 
ATOM     17  C   UNL     1      -2.781   2.344  -0.055  1.00  0.00     0.007 C 
ATOM     18  C   UNL     1      -4.550   1.510   1.962  1.00  0.00     0.000 C 
ATOM     19  C   UNL     1      -4.018   3.238   0.170  1.00  0.00     0.000 C 
ATOM     20  C   UNL     1      -5.123   2.562   1.007  1.00  0.00     0.000 C 
ENDBRANCH  12  15
BRANCH  12  21
ATOM     21  C   UNL     1      -2.416  -1.539  -0.582  1.00  0.00    -0.005 A 
ATOM     22  C   UNL     1      -3.351  -1.980  -1.544  1.00  0.00     0.007 A 
ATOM     23  C   UNL     1      -1.962  -2.468   0.384  1.00  0.00     0.007 A 
ATOM     24  C   UNL     1      -3.793  -3.305  -1.558  1.00  0.00     0.000 A 
ATOM     25  C   UNL     1      -2.402  -3.795   0.355  1.00  0.00     0.000 A 
ATOM     26  C   UNL     1      -3.315  -4.213  -0.613  1.00  0.00     0.000 A 
ENDBRANCH  12  21
ENDBRANCH  10  12
ENDBRANCH   9  10
ENDBRANCH   1   9
TORSDOF 10
