REMARK SMILES Cc1nc2c([nH]1)CCN(C(=O)c1ccc(NC(=O)c3ccccc3-c3ccccc3)cc1)c1ccccc1-2
REMARK SMILES IDX 10 1 11 2 9 3 33 4 38 5 37 6 34 7 36 8 35 9 4 10 1 11 2 12
REMARK SMILES IDX 3 13 6 14 5 15 7 17 8 19 12 21 13 22 32 23 14 24 31 25 15 26
REMARK SMILES IDX 16 27 17 28 18 30 19 31 20 32 24 33 21 34 23 35 22 36 25 37
REMARK SMILES IDX 26 38 30 39 27 40 29 41 28 42
REMARK H PARENT 6 16 16 29
REMARK Flexibility Score: 90.00
ROOT
ATOM      1  C   UNL     1       1.867  -1.462   0.672  1.00  0.00     0.258 C 
ATOM      2  O   UNL     1       1.741  -2.572   1.260  1.00  0.00    -0.269 OA
ENDROOT
BRANCH   1   3
ATOM      3  N   UNL     1       3.184  -1.005   0.317  1.00  0.00    -0.307 N 
BRANCH   3   4
ATOM      4  C   UNL     1       3.902  -1.714  -0.743  1.00  0.00     0.053 A 
ATOM      5  C   UNL     1       5.330  -1.824  -0.823  1.00  0.00     0.026 A 
ATOM      6  C   UNL     1       5.903  -2.661  -1.799  1.00  0.00     0.012 A 
ATOM      7  C   UNL     1       3.136  -2.388  -1.726  1.00  0.00     0.027 A 
ATOM      8  C   UNL     1       5.112  -3.333  -2.726  1.00  0.00     0.001 A 
ATOM      9  C   UNL     1       3.733  -3.183  -2.701  1.00  0.00     0.002 A 
BRANCH   5  10
ATOM     10  C   UNL     1       6.277  -1.053   0.011  1.00  0.00     0.094 A 
ATOM     11  C   UNL     1       9.465  -0.379   1.483  1.00  0.00     0.087 C 
ATOM     12  C   UNL     1       8.073  -0.388   0.945  1.00  0.00     0.103 A 
ATOM     13  N   UNL     1       7.555  -1.422   0.248  1.00  0.00    -0.233 NA
ATOM     14  N   UNL     1       7.188   0.605   1.156  1.00  0.00    -0.346 N 
ATOM     15  C   UNL     1       6.065   0.191   0.548  1.00  0.00     0.045 A 
ATOM     16  H   UNL     1       7.336   1.490   1.692  1.00  0.00     0.167 HD
BRANCH  15  17
ATOM     17  C   UNL     1       4.768   0.908   0.569  1.00  0.00     0.078 CG0
ATOM     18  G   UNL     1       3.743   0.001   1.234  1.00  0.00     0.000 G0
ENDBRANCH  15  17
ENDBRANCH   5  10
ENDBRANCH   3   4
BRANCH   3  19
ATOM     19  C   UNL     1       3.743   0.001   1.234  1.00  0.00     0.132 CG0
ATOM     20  G   UNL     1       4.768   0.908   0.569  1.00  0.00     0.000 G0
ENDBRANCH   3  19
ENDBRANCH   1   3
BRANCH   1  21
ATOM     21  C   UNL     1       0.668  -0.654   0.343  1.00  0.00     0.040 A 
ATOM     22  C   UNL     1       0.777   0.488  -0.469  1.00  0.00     0.016 A 
ATOM     23  C   UNL     1      -0.602  -1.032   0.815  1.00  0.00     0.016 A 
ATOM     24  C   UNL     1      -0.355   1.241  -0.790  1.00  0.00     0.027 A 
ATOM     25  C   UNL     1      -1.734  -0.280   0.489  1.00  0.00     0.027 A 
ATOM     26  C   UNL     1      -1.616   0.875  -0.302  1.00  0.00     0.041 A 
BRANCH  26  27
ATOM     27  N   UNL     1      -2.768   1.647  -0.686  1.00  0.00    -0.322 N 
ATOM     28  C   UNL     1      -3.935   1.813   0.136  1.00  0.00     0.256 C 
ATOM     29  H   UNL     1      -2.740   2.126  -1.613  1.00  0.00     0.170 HD
ATOM     30  O   UNL     1      -3.895   1.525   1.362  1.00  0.00    -0.269 OA
BRANCH  28  31
ATOM     31  C   UNL     1      -5.186   2.351  -0.443  1.00  0.00     0.048 A 
ATOM     32  C   UNL     1      -5.124   3.507  -1.241  1.00  0.00     0.014 A 
ATOM     33  C   UNL     1      -6.448   1.759  -0.177  1.00  0.00    -0.006 A 
ATOM     34  C   UNL     1      -6.288   4.078  -1.759  1.00  0.00     0.001 A 
ATOM     35  C   UNL     1      -7.609   2.353  -0.703  1.00  0.00     0.009 A 
ATOM     36  C   UNL     1      -7.529   3.504  -1.487  1.00  0.00     0.001 A 
BRANCH  33  37
ATOM     37  C   UNL     1      -6.584   0.508   0.610  1.00  0.00    -0.018 A 
ATOM     38  C   UNL     1      -5.861  -0.644   0.254  1.00  0.00     0.009 A 
ATOM     39  C   UNL     1      -7.463   0.454   1.704  1.00  0.00     0.009 A 
ATOM     40  C   UNL     1      -5.992  -1.818   1.000  1.00  0.00     0.001 A 
ATOM     41  C   UNL     1      -7.594  -0.724   2.446  1.00  0.00     0.001 A 
ATOM     42  C   UNL     1      -6.856  -1.858   2.097  1.00  0.00     0.000 A 
ENDBRANCH  33  37
ENDBRANCH  28  31
ENDBRANCH  26  27
ENDBRANCH   1  21
TORSDOF 5
