REMARK SMILES C#Cc1cccc(Nc2ncnc3cc(OCCOC)c(OCCOC)cc23)c1
REMARK SMILES IDX 15 1 14 2 13 3 28 4 27 5 21 6 9 7 10 8 11 9 12 10 16 11
REMARK SMILES IDX 17 12 18 13 19 14 20 15 22 16 23 17 24 18 25 19 26 20 8 21
REMARK SMILES IDX 7 23 29 24 6 25 3 26 5 27 4 28 2 29 1 30
REMARK H PARENT 8 22
REMARK Flexibility Score: inf
ROOT
ATOM      1  C   UNL     1      -2.153  -0.505   0.968  1.00  0.00     0.163 A 
ATOM      2  C   UNL     1      -1.575  -1.664   1.518  1.00  0.00     0.079 A 
ATOM      3  C   UNL     1      -0.187  -1.788   1.612  1.00  0.00     0.080 A 
ATOM      4  C   UNL     1       0.653  -0.744   1.170  1.00  0.00     0.047 A 
ATOM      5  C   UNL     1       0.075   0.408   0.608  1.00  0.00     0.064 A 
ATOM      6  C   UNL     1      -1.325   0.533   0.512  1.00  0.00     0.162 A 
ATOM      7  C   UNL     1       2.049  -0.923   1.290  1.00  0.00     0.141 A 
ATOM      8  N   UNL     1       2.527  -2.084   1.816  1.00  0.00    -0.219 NA
ATOM      9  C   UNL     1       1.697  -3.076   2.225  1.00  0.00     0.224 A 
ATOM     10  N   UNL     1       0.353  -2.923   2.126  1.00  0.00    -0.236 NA
ENDROOT
BRANCH   1  11
ATOM     11  O   UNL     1      -3.544  -0.335   0.857  1.00  0.00    -0.487 OA
BRANCH  11  12
ATOM     12  C   UNL     1      -4.532  -1.323   1.153  1.00  0.00     0.258 C 
BRANCH  12  13
ATOM     13  C   UNL     1      -4.602  -2.369   0.042  1.00  0.00     0.201 C 
BRANCH  13  14
ATOM     14  O   UNL     1      -5.614  -3.303   0.352  1.00  0.00    -0.381 OA
ATOM     15  C   UNL     1      -5.687  -4.269  -0.673  1.00  0.00     0.195 C 
ENDBRANCH  13  14
ENDBRANCH  12  13
ENDBRANCH  11  12
ENDBRANCH   1  11
BRANCH   6  16
ATOM     16  O   UNL     1      -1.935   1.672  -0.037  1.00  0.00    -0.487 OA
BRANCH  16  17
ATOM     17  C   UNL     1      -1.234   2.808  -0.538  1.00  0.00     0.258 C 
BRANCH  17  18
ATOM     18  C   UNL     1      -2.230   3.843  -1.042  1.00  0.00     0.201 C 
BRANCH  18  19
ATOM     19  O   UNL     1      -3.047   4.267   0.029  1.00  0.00    -0.381 OA
ATOM     20  C   UNL     1      -3.979   5.214  -0.442  1.00  0.00     0.195 C 
ENDBRANCH  18  19
ENDBRANCH  17  18
ENDBRANCH  16  17
ENDBRANCH   6  16
BRANCH   7  21
ATOM     21  N   UNL     1       2.975   0.115   0.926  1.00  0.00    -0.340 N 
ATOM     22  H   UNL     1       2.726   1.104   1.156  1.00  0.00     0.168 HD
BRANCH  21  23
ATOM     23  C   UNL     1       4.299  -0.145   0.427  1.00  0.00     0.041 A 
ATOM     24  C   UNL     1       5.312   0.807   0.625  1.00  0.00     0.043 A 
ATOM     25  C   UNL     1       4.589  -1.312  -0.303  1.00  0.00     0.026 A 
ATOM     26  C   UNL     1       6.603   0.583   0.130  1.00  0.00     0.026 A 
ATOM     27  C   UNL     1       5.878  -1.534  -0.797  1.00  0.00     0.003 A 
ATOM     28  C   UNL     1       6.885  -0.591  -0.579  1.00  0.00     0.017 A 
BRANCH  26  29
ATOM     29  C   UNL     1       7.639   1.560   0.347  1.00  0.00    -0.070 C 
ATOM     30  C   UNL     1       8.506   2.378   0.530  1.00  0.00     0.010 C 
ENDBRANCH  26  29
ENDBRANCH  21  23
ENDBRANCH   7  21
TORSDOF 11
