REMARK SMILES CCNC(=O)CCC/C=C\C[C@@H]1[C@@H](/C=C/[C@@H](O)CCc2ccccc2)[C@H](O)C[C@@H]1O
REMARK SMILES IDX 11 1 10 2 9 3 8 4 7 5 6 6 4 7 3 8 5 10 2 11 1 12 12 13 29 14
REMARK SMILES IDX 13 15 28 16 26 17 30 18 14 20 15 21 16 22 17 23 18 25 19 26
REMARK SMILES IDX 20 27 21 28 25 29 22 30 24 31 23 32 27 33
REMARK H PARENT 3 9 30 19 17 24 27 34
REMARK Flexibility Score: inf
ROOT
ATOM      1  C   UNL     1       1.272  -1.449   0.234  1.00  0.00     0.034 C 
ENDROOT
BRANCH   1   2
ATOM      2  C   UNL     1       2.151  -0.219   0.293  1.00  0.00    -0.031 C 
ATOM      3  C   UNL     1       3.032   0.126  -0.662  1.00  0.00    -0.031 C 
BRANCH   3   4
ATOM      4  C   UNL     1       3.274  -0.640  -1.941  1.00  0.00     0.027 C 
BRANCH   4   5
ATOM      5  C   UNL     1       4.193  -1.866  -1.772  1.00  0.00     0.014 C 
BRANCH   5   6
ATOM      6  C   UNL     1       5.499  -1.589  -1.007  1.00  0.00     0.100 C 
BRANCH   6   7
ATOM      7  C   UNL     1       6.317  -0.508  -1.653  1.00  0.00     0.219 C 
ATOM      8  N   UNL     1       6.467   0.765  -1.011  1.00  0.00    -0.356 N 
ATOM      9  H   UNL     1       6.082   0.894  -0.045  1.00  0.00     0.163 HD
ATOM     10  O   UNL     1       6.850  -0.721  -2.779  1.00  0.00    -0.275 OA
BRANCH   8  11
ATOM     11  C   UNL     1       7.236   1.862  -1.599  1.00  0.00     0.112 C 
ATOM     12  C   UNL     1       6.471   2.492  -2.758  1.00  0.00     0.027 C 
ENDBRANCH   8  11
ENDBRANCH   6   7
ENDBRANCH   5   6
ENDBRANCH   4   5
ENDBRANCH   3   4
ENDBRANCH   1   2
BRANCH   1  13
ATOM     13  C   UNL     1       0.383  -1.657   1.492  1.00  0.00     0.031 C 
ATOM     14  C   UNL     1       1.151  -1.815   2.821  1.00  0.00     0.121 C 
ATOM     15  C   UNL     1      -0.626  -0.502   1.709  1.00  0.00     0.046 C 
ATOM     16  C   UNL     1       0.983  -0.507   3.580  1.00  0.00     0.064 C 
ATOM     17  C   UNL     1      -0.331   0.102   3.099  1.00  0.00     0.124 C 
BRANCH  14  18
ATOM     18  O   UNL     1       2.514  -2.103   2.638  1.00  0.00    -0.393 OA
ATOM     19  H   UNL     1       2.573  -3.069   2.414  1.00  0.00     0.210 HD
ENDBRANCH  14  18
BRANCH  15  20
ATOM     20  C   UNL     1      -2.054  -1.004   1.646  1.00  0.00    -0.022 C 
ATOM     21  C   UNL     1      -3.011  -0.343   0.978  1.00  0.00     0.000 C 
BRANCH  21  22
ATOM     22  C   UNL     1      -4.447  -0.820   0.973  1.00  0.00     0.137 C 
BRANCH  22  23
ATOM     23  O   UNL     1      -5.292   0.200   1.437  1.00  0.00    -0.389 OA
ATOM     24  H   UNL     1      -5.181   0.241   2.424  1.00  0.00     0.211 HD
ENDBRANCH  22  23
BRANCH  22  25
ATOM     25  C   UNL     1      -4.888  -1.287  -0.428  1.00  0.00     0.041 C 
BRANCH  25  26
ATOM     26  C   UNL     1      -4.815  -0.223  -1.541  1.00  0.00     0.038 C 
BRANCH  26  27
ATOM     27  C   UNL     1      -5.804   0.898  -1.341  1.00  0.00    -0.048 A 
ATOM     28  C   UNL     1      -5.374   2.158  -0.890  1.00  0.00     0.004 A 
ATOM     29  C   UNL     1      -7.170   0.684  -1.588  1.00  0.00     0.004 A 
ATOM     30  C   UNL     1      -6.302   3.183  -0.678  1.00  0.00     0.000 A 
ATOM     31  C   UNL     1      -8.094   1.716  -1.383  1.00  0.00     0.000 A 
ATOM     32  C   UNL     1      -7.661   2.964  -0.927  1.00  0.00     0.000 A 
ENDBRANCH  26  27
ENDBRANCH  25  26
ENDBRANCH  22  25
ENDBRANCH  21  22
ENDBRANCH  15  20
BRANCH  17  33
ATOM     33  O   UNL     1      -0.210   1.501   3.020  1.00  0.00    -0.392 OA
ATOM     34  H   UNL     1      -1.130   1.857   2.901  1.00  0.00     0.210 HD
ENDBRANCH  17  33
ENDBRANCH   1  13
TORSDOF 15
