REMARK SMILES C[C@H]1C[C@@H]2[C@H]([C@@H](O)C[C@@]3(C)[C@H]2CC[C@]3(O)C(=O)CO)[C@@]2(C)C=CC(=O)C=C12
REMARK SMILES IDX 16 1 17 2 14 3 11 4 12 5 9 6 4 7 13 8 10 9 8 10 5 11 3 12
REMARK SMILES IDX 6 13 20 14 2 15 27 16 22 17 21 18 1 19 26 20 23 21 24 22
REMARK SMILES IDX 25 23 15 24 7 26 18 28 19 29
REMARK H PARENT 15 25 7 27 19 30
REMARK Flexibility Score: inf
ROOT
ATOM      1  C   UNL     1       4.524  -0.423  -0.114  1.00  0.00     0.190 C 
ATOM      2  O   UNL     1       4.676  -1.635  -0.160  1.00  0.00    -0.294 OA
ENDROOT
BRANCH   1   3
ATOM      3  C   UNL     1       3.199   0.202  -0.602  1.00  0.00     0.131 C 
ATOM      4  C   UNL     1       0.834   0.112  -0.946  1.00  0.00     0.002 C 
ATOM      5  C   UNL     1       1.434  -0.303  -2.285  1.00  0.00     0.008 C 
ATOM      6  C   UNL     1       1.881  -0.316   0.095  1.00  0.00     0.009 C 
ATOM      7  C   UNL     1      -0.607  -0.339  -0.606  1.00  0.00     0.000 C 
ATOM      8  C   UNL     1       2.956  -0.157  -2.095  1.00  0.00     0.044 C 
ATOM      9  C   UNL     1       1.932  -1.871   0.285  1.00  0.00     0.015 C 
ATOM     10  C   UNL     1       1.501   0.361   1.442  1.00  0.00     0.042 C 
ATOM     11  C   UNL     1      -1.014   0.283   0.778  1.00  0.00     0.035 C 
ATOM     12  C   UNL     1      -1.581   0.116  -1.715  1.00  0.00     0.012 C 
ATOM     13  C   UNL     1       0.053   0.028   1.903  1.00  0.00     0.119 C 
ATOM     14  C   UNL     1      -2.512  -0.027   1.173  1.00  0.00     0.013 C 
ATOM     15  C   UNL     1      -3.033  -0.252  -1.376  1.00  0.00     0.013 C 
ATOM     16  C   UNL     1      -3.395   0.374  -0.029  1.00  0.00    -0.053 C 
ATOM     17  C   UNL     1      -2.864   0.738   2.451  1.00  0.00    -0.012 C 
ATOM     18  C   UNL     1      -2.770  -1.524   1.479  1.00  0.00     0.021 C 
ATOM     19  C   UNL     1      -3.955   0.111  -2.553  1.00  0.00     0.012 C 
ATOM     20  C   UNL     1      -4.384   1.284   0.092  1.00  0.00     0.052 C 
ATOM     21  C   UNL     1      -3.852   1.625   2.535  1.00  0.00     0.048 C 
ATOM     22  C   UNL     1      -4.666   1.939   1.368  1.00  0.00     0.178 C 
ATOM     23  O   UNL     1      -5.603   2.774   1.458  1.00  0.00    -0.290 OA
BRANCH   3  24
ATOM     24  O   UNL     1       3.267   1.611  -0.533  1.00  0.00    -0.381 OA
ATOM     25  H   UNL     1       3.442   1.873   0.407  1.00  0.00     0.212 HD
ENDBRANCH   3  24
BRANCH  13  26
ATOM     26  O   UNL     1      -0.020  -1.284   2.391  1.00  0.00    -0.393 OA
ATOM     27  H   UNL     1       0.450  -1.297   3.266  1.00  0.00     0.210 HD
ENDBRANCH  13  26
ENDBRANCH   1   3
BRANCH   1  28
ATOM     28  C   UNL     1       5.707   0.397   0.354  1.00  0.00     0.234 C 
BRANCH  28  29
ATOM     29  O   UNL     1       6.880  -0.042  -0.278  1.00  0.00    -0.388 OA
ATOM     30  H   UNL     1       6.832   0.279  -1.217  1.00  0.00     0.211 HD
ENDBRANCH  28  29
ENDBRANCH   1  28
TORSDOF 5
