REMARK SMILES CCCCC(=O)OCC(=O)[C@]1(O)Cc2c(O)c3c(c(O)c2[C@@H](O[C@H]2C[C@H](NC(=O)C(F)(F)F)[C@H](O)[C@H](C)O2)C1)C(=O)c1c(OC)cccc1C3=O
REMARK SMILES IDX 8 1 9 2 10 3 11 4 22 5 39 6 21 7 14 8 19 9 13 10 15 11 18 12
REMARK SMILES IDX 17 13 40 14 50 15 41 16 42 17 49 18 51 19 43 20 48 21 46 22
REMARK SMILES IDX 47 23 23 24 24 25 25 26 38 27 26 28 36 29 34 30 37 31 27 32
REMARK SMILES IDX 28 33 29 35 30 36 31 37 32 38 33 39 35 40 12 42 20 44 16 46
REMARK SMILES IDX 44 48 45 49 7 50 5 51 6 52 4 53 3 54 2 55 1 56
REMARK H PARENT 27 34 35 41 12 43 20 45 16 47
REMARK Flexibility Score: inf
ROOT
ATOM      1  C   UNL     1       2.785  -1.192   3.460  1.00  0.00     0.311 C 
ENDROOT
BRANCH   1   2
ATOM      2  C   UNL     1       2.337  -1.640   2.089  1.00  0.00     0.202 C 
ATOM      3  O   UNL     1       2.847  -2.645   1.615  1.00  0.00    -0.293 OA
BRANCH   2   4
ATOM      4  C   UNL     1       1.240  -0.914   1.313  1.00  0.00     0.133 C 
ATOM      5  C   UNL     1      -1.185  -0.137   1.414  1.00  0.00     0.159 C 
ATOM      6  C   UNL     1      -0.005  -0.746   2.196  1.00  0.00     0.081 C 
ATOM      7  C   UNL     1      -0.771   1.030   0.516  1.00  0.00     0.031 A 
ATOM      8  C   UNL     1       0.596   1.319   0.256  1.00  0.00     0.008 A 
ATOM      9  C   UNL     1      -1.775   1.815  -0.107  1.00  0.00     0.133 A 
ATOM     10  C   UNL     1       1.705   0.489   0.881  1.00  0.00     0.083 C 
ATOM     11  C   UNL     1       0.937   2.446  -0.528  1.00  0.00     0.131 A 
ATOM     12  C   UNL     1      -1.425   2.868  -0.985  1.00  0.00     0.080 A 
ATOM     13  C   UNL     1      -0.067   3.194  -1.182  1.00  0.00     0.080 A 
ATOM     14  C   UNL     1      -2.478   3.654  -1.696  1.00  0.00     0.202 C 
ATOM     15  C   UNL     1       0.286   4.341  -2.068  1.00  0.00     0.198 C 
ATOM     16  O   UNL     1      -3.670   3.243  -1.705  1.00  0.00    -0.288 OA
ATOM     17  C   UNL     1      -2.130   4.899  -2.430  1.00  0.00     0.076 A 
ATOM     18  C   UNL     1      -0.770   5.223  -2.614  1.00  0.00     0.038 A 
ATOM     19  O   UNL     1       1.490   4.569  -2.371  1.00  0.00    -0.288 OA
ATOM     20  C   UNL     1      -3.131   5.756  -2.959  1.00  0.00     0.130 A 
ATOM     21  C   UNL     1      -0.419   6.381  -3.328  1.00  0.00     0.013 A 
ATOM     22  C   UNL     1      -2.748   6.909  -3.671  1.00  0.00     0.047 A 
ATOM     23  C   UNL     1      -1.403   7.214  -3.853  1.00  0.00     0.005 A 
BRANCH   5  24
ATOM     24  O   UNL     1      -1.810  -1.127   0.603  1.00  0.00    -0.344 OA
BRANCH  24  25
ATOM     25  C   UNL     1      -2.820  -1.855   1.296  1.00  0.00     0.253 C 
ATOM     26  C   UNL     1      -3.961  -2.224   0.330  1.00  0.00     0.090 C 
ATOM     27  O   UNL     1      -2.287  -3.012   1.925  1.00  0.00    -0.347 OA
ATOM     28  C   UNL     1      -3.523  -3.290  -0.687  1.00  0.00     0.118 C 
ATOM     29  C   UNL     1      -1.736  -3.918   0.983  1.00  0.00     0.149 C 
ATOM     30  C   UNL     1      -2.824  -4.465   0.029  1.00  0.00     0.165 C 
ATOM     31  C   UNL     1      -1.036  -5.049   1.736  1.00  0.00     0.041 C 
BRANCH  28  32
ATOM     32  N   UNL     1      -4.673  -3.763  -1.465  1.00  0.00    -0.343 N 
ATOM     33  C   UNL     1      -4.527  -4.515  -2.680  1.00  0.00     0.326 C 
ATOM     34  H   UNL     1      -5.641  -3.530  -1.145  1.00  0.00     0.164 HD
ATOM     35  O   UNL     1      -3.381  -4.748  -3.151  1.00  0.00    -0.265 OA
BRANCH  33  36
ATOM     36  C   UNL     1      -5.742  -5.039  -3.385  1.00  0.00     0.471 C 
ATOM     37  F   UNL     1      -6.365  -5.981  -2.588  1.00  0.00    -0.162 F 
ATOM     38  F   UNL     1      -5.389  -5.628  -4.587  1.00  0.00    -0.162 F 
ATOM     39  F   UNL     1      -6.622  -4.000  -3.632  1.00  0.00    -0.162 F 
ENDBRANCH  33  36
ENDBRANCH  28  32
BRANCH  30  40
ATOM     40  O   UNL     1      -3.753  -5.286   0.700  1.00  0.00    -0.388 OA
ATOM     41  H   UNL     1      -4.129  -4.772   1.460  1.00  0.00     0.211 HD
ENDBRANCH  30  40
ENDBRANCH  24  25
ENDBRANCH   5  24
BRANCH   4  42
ATOM     42  O   UNL     1       0.886  -1.670   0.174  1.00  0.00    -0.381 OA
ATOM     43  H   UNL     1       1.667  -1.704  -0.437  1.00  0.00     0.212 HD
ENDBRANCH   4  42
BRANCH   9  44
ATOM     44  O   UNL     1      -3.133   1.573   0.136  1.00  0.00    -0.507 OA
ATOM     45  H   UNL     1      -3.489   0.876   0.772  1.00  0.00     0.293 HD
ENDBRANCH   9  44
BRANCH  11  46
ATOM     46  O   UNL     1       2.272   2.853  -0.657  1.00  0.00    -0.507 OA
ATOM     47  H   UNL     1       3.044   2.458  -0.140  1.00  0.00     0.293 HD
ENDBRANCH  11  46
BRANCH  20  48
ATOM     48  O   UNL     1      -4.488   5.446  -2.762  1.00  0.00    -0.496 OA
ATOM     49  C   UNL     1      -5.581   6.217  -3.252  1.00  0.00     0.278 C 
ENDBRANCH  20  48
ENDBRANCH   2   4
ENDBRANCH   1   2
BRANCH   1  50
ATOM     50  O   UNL     1       4.198  -1.326   3.596  1.00  0.00    -0.458 OA
BRANCH  50  51
ATOM     51  C   UNL     1       5.115  -0.438   3.023  1.00  0.00     0.306 C 
ATOM     52  O   UNL     1       4.719   0.606   2.433  1.00  0.00    -0.252 OA
BRANCH  51  53
ATOM     53  C   UNL     1       6.581  -0.701   3.185  1.00  0.00     0.123 C 
BRANCH  53  54
ATOM     54  C   UNL     1       7.358  -0.410   1.895  1.00  0.00     0.011 C 
BRANCH  54  55
ATOM     55  C   UNL     1       8.832  -0.806   2.046  1.00  0.00    -0.003 C 
ATOM     56  C   UNL     1       9.629  -0.450   0.796  1.00  0.00     0.004 C 
ENDBRANCH  54  55
ENDBRANCH  53  54
ENDBRANCH  51  53
ENDBRANCH  50  51
ENDBRANCH   1  50
TORSDOF 16
