REMARK SMILES CC(C(=O)O)c1ccc(C(=O)c2cccs2)cc1
REMARK SMILES IDX 6 1 7 2 8 3 9 4 17 5 18 6 2 7 1 8 3 9 4 10 5 11 10 13 11 14
REMARK SMILES IDX 12 15 13 16 16 17 14 18 15 19
REMARK H PARENT 5 12
REMARK Flexibility Score: inf
ROOT
ATOM      1  C   UNL     1      -1.631   0.273   0.869  1.00  0.00    -0.034 A 
ATOM      2  C   UNL     1      -0.382   0.512   1.466  1.00  0.00     0.005 A 
ATOM      3  C   UNL     1       0.785  -0.016   0.908  1.00  0.00     0.012 A 
ATOM      4  C   UNL     1       0.729  -0.784  -0.266  1.00  0.00     0.023 A 
ATOM      5  C   UNL     1      -0.520  -1.041  -0.854  1.00  0.00     0.012 A 
ATOM      6  C   UNL     1      -1.687  -0.512  -0.297  1.00  0.00     0.005 A 
ENDROOT
BRANCH   1   7
ATOM      7  C   UNL     1      -2.889   0.856   1.481  1.00  0.00     0.126 C 
ATOM      8  C   UNL     1      -3.550   1.864   0.533  1.00  0.00     0.025 C 
BRANCH   7   9
ATOM      9  C   UNL     1      -3.843  -0.239   1.877  1.00  0.00     0.310 C 
ATOM     10  O   UNL     1      -3.798  -0.716   3.042  1.00  0.00    -0.252 OA
BRANCH   9  11
ATOM     11  O   UNL     1      -4.741  -0.764   0.951  1.00  0.00    -0.481 OA
ATOM     12  H   UNL     1      -5.372  -1.514   1.208  1.00  0.00     0.296 HD
ENDBRANCH   9  11
ENDBRANCH   7   9
ENDBRANCH   1   7
BRANCH   4  13
ATOM     13  C   UNL     1       1.955  -1.365  -0.859  1.00  0.00     0.202 C 
ATOM     14  O   UNL     1       1.904  -2.525  -1.350  1.00  0.00    -0.288 OA
BRANCH  13  15
ATOM     15  C   UNL     1       3.232  -0.624  -0.915  1.00  0.00     0.075 A 
ATOM     16  C   UNL     1       4.474  -1.180  -1.205  1.00  0.00     0.024 A 
ATOM     17  S   UNL     1       3.430   1.041  -0.748  1.00  0.00    -0.140 S 
ATOM     18  C   UNL     1       5.508  -0.237  -1.252  1.00  0.00     0.012 A 
ATOM     19  C   UNL     1       5.089   1.065  -1.015  1.00  0.00     0.065 A 
ENDBRANCH  13  15
ENDBRANCH   4  13
TORSDOF 5
