REMARK SMILES Cc1ccc(-c2cc(C(F)(F)F)nn2-c2ccc(S(N)(=O)=O)cc2)cc1
REMARK SMILES IDX 15 1 16 2 17 3 18 4 23 5 24 6 14 7 6 8 7 9 8 10 13 11 5 12
REMARK SMILES IDX 1 13 2 14 3 15 26 16 4 17 25 18 9 19 10 20 11 21 12 22 19 23
REMARK SMILES IDX 21 24 22 25 20 26
REMARK H PARENT 20 27 20 28
REMARK Flexibility Score: inf
ROOT
ATOM      1  C   UNL     1       1.224  -0.519   0.494  1.00  0.00     0.065 A 
ATOM      2  C   UNL     1       2.295  -0.081   1.287  1.00  0.00     0.030 A 
ATOM      3  C   UNL     1       3.238   0.812   0.770  1.00  0.00     0.024 A 
ATOM      4  C   UNL     1       3.126   1.271  -0.550  1.00  0.00     0.082 A 
ATOM      5  C   UNL     1       2.075   0.812  -1.354  1.00  0.00     0.024 A 
ATOM      6  C   UNL     1       1.133  -0.082  -0.838  1.00  0.00     0.030 A 
ENDROOT
BRANCH   1   7
ATOM      7  N   UNL     1       0.267  -1.448   1.032  1.00  0.00    -0.233 N 
ATOM      8  C   UNL     1      -1.076  -1.465   0.849  1.00  0.00     0.075 A 
ATOM      9  C   UNL     1      -1.593  -2.582   1.479  1.00  0.00     0.064 A 
ATOM     10  C   UNL     1      -0.490  -3.202   2.035  1.00  0.00     0.167 A 
ATOM     11  N   UNL     1       0.623  -2.493   1.764  1.00  0.00    -0.163 NA
BRANCH   8  12
ATOM     12  C   UNL     1      -1.889  -0.415   0.196  1.00  0.00     0.000 A 
ATOM     13  C   UNL     1      -4.280   2.627  -1.715  1.00  0.00     0.044 C 
ATOM     14  C   UNL     1      -3.471   1.570  -1.023  1.00  0.00    -0.051 A 
ATOM     15  C   UNL     1      -3.741   0.212  -1.249  1.00  0.00     0.004 A 
ATOM     16  C   UNL     1      -2.400   1.930  -0.193  1.00  0.00     0.004 A 
ATOM     17  C   UNL     1      -2.963  -0.773  -0.634  1.00  0.00     0.010 A 
ATOM     18  C   UNL     1      -1.622   0.946   0.423  1.00  0.00     0.010 A 
ENDBRANCH   8  12
BRANCH  10  19
ATOM     19  C   UNL     1      -0.517  -4.415   2.909  1.00  0.00     0.435 C 
ATOM     20  F   UNL     1       0.733  -5.006   2.936  1.00  0.00    -0.164 F 
ATOM     21  F   UNL     1      -1.435  -5.327   2.422  1.00  0.00    -0.164 F 
ATOM     22  F   UNL     1      -0.875  -4.048   4.192  1.00  0.00    -0.164 F 
ENDBRANCH  10  19
ENDBRANCH   1   7
BRANCH   4  23
ATOM     23  S   UNL     1       4.322   2.384  -1.206  1.00  0.00     0.238 S 
ATOM     24  O   UNL     1       4.864   3.254  -0.107  1.00  0.00    -0.207 OA
ATOM     25  O   UNL     1       3.684   3.262  -2.245  1.00  0.00    -0.207 OA
BRANCH  23  26
ATOM     26  N   UNL     1       5.616   1.489  -1.923  1.00  0.00    -0.225 NA
ATOM     27  H   UNL     1       6.002   0.863  -1.181  1.00  0.00     0.137 HD
ATOM     28  H   UNL     1       5.192   0.869  -2.649  1.00  0.00     0.137 HD
ENDBRANCH  23  26
ENDBRANCH   4  23
TORSDOF 5
