REMARK SMILES CCCCC(=O)N(Cc1ccc(-c2ccccc2-c2nn[nH]n2)cc1)[C@H](C(=O)O)C(C)C
REMARK SMILES IDX 7 1 5 2 6 3 4 4 3 5 2 6 1 7 8 8 9 9 10 10 25 11 11 12 24 13
REMARK SMILES IDX 12 14 13 15 14 16 18 17 15 18 17 19 16 20 19 21 23 22 20 23
REMARK SMILES IDX 22 24 21 25 26 27 30 28 31 29 32 30 27 31 28 32 29 33
REMARK H PARENT 22 26 29 34
REMARK Flexibility Score: inf
ROOT
ATOM      1  N   UNL     1      -1.891   0.048   0.587  1.00  0.00    -0.324 N 
ENDROOT
BRANCH   1   2
ATOM      2  C   UNL     1      -2.057   0.931  -0.537  1.00  0.00     0.223 C 
ATOM      3  O   UNL     1      -1.895   0.491  -1.707  1.00  0.00    -0.275 OA
BRANCH   2   4
ATOM      4  C   UNL     1      -2.459   2.363  -0.343  1.00  0.00     0.100 C 
BRANCH   4   5
ATOM      5  C   UNL     1      -3.981   2.515  -0.433  1.00  0.00     0.010 C 
BRANCH   5   6
ATOM      6  C   UNL     1      -4.391   3.989  -0.326  1.00  0.00    -0.003 C 
ATOM      7  C   UNL     1      -5.909   4.144  -0.375  1.00  0.00     0.004 C 
ENDBRANCH   5   6
ENDBRANCH   4   5
ENDBRANCH   2   4
ENDBRANCH   1   2
BRANCH   1   8
ATOM      8  C   UNL     1      -0.753   0.294   1.499  1.00  0.00     0.156 C 
BRANCH   8   9
ATOM      9  C   UNL     1       0.562   0.091   0.793  1.00  0.00    -0.029 A 
ATOM     10  C   UNL     1       1.247  -1.129   0.903  1.00  0.00     0.006 A 
ATOM     11  C   UNL     1       1.106   1.114  -0.001  1.00  0.00     0.006 A 
ATOM     12  C   UNL     1       2.459  -1.321   0.235  1.00  0.00     0.009 A 
ATOM     13  C   UNL     1       2.314   0.920  -0.675  1.00  0.00     0.009 A 
ATOM     14  C   UNL     1       3.002  -0.293  -0.549  1.00  0.00    -0.018 A 
BRANCH  14  15
ATOM     15  C   UNL     1       4.287  -0.491  -1.247  1.00  0.00    -0.007 A 
ATOM     16  C   UNL     1       4.256  -0.694  -2.635  1.00  0.00     0.009 A 
ATOM     17  C   UNL     1       5.532  -0.510  -0.560  1.00  0.00     0.031 A 
ATOM     18  C   UNL     1       5.432  -0.935  -3.344  1.00  0.00     0.001 A 
ATOM     19  C   UNL     1       6.706  -0.765  -1.296  1.00  0.00     0.013 A 
ATOM     20  C   UNL     1       6.654  -0.976  -2.675  1.00  0.00     0.001 A 
BRANCH  17  21
ATOM     21  C   UNL     1       5.655  -0.233   0.897  1.00  0.00     0.205 A 
ATOM     22  N   UNL     1       6.779  -0.443   1.616  1.00  0.00    -0.134 NA
ATOM     23  N   UNL     1       4.688   0.312   1.666  1.00  0.00    -0.108 NA
ATOM     24  N   UNL     1       6.470  -0.025   2.832  1.00  0.00    -0.177 N 
ATOM     25  N   UNL     1       5.227   0.425   2.870  1.00  0.00    -0.050 NA
ATOM     26  H   UNL     1       7.119  -0.047   3.650  1.00  0.00     0.216 HD
ENDBRANCH  17  21
ENDBRANCH  14  15
ENDBRANCH   8   9
ENDBRANCH   1   8
BRANCH   1  27
ATOM     27  C   UNL     1      -2.950  -0.966   0.825  1.00  0.00     0.197 C 
BRANCH  27  28
ATOM     28  C   UNL     1      -2.918  -2.108  -0.238  1.00  0.00     0.017 C 
ATOM     29  C   UNL     1      -3.992  -3.177   0.025  1.00  0.00     0.010 C 
ATOM     30  C   UNL     1      -1.538  -2.759  -0.410  1.00  0.00     0.010 C 
ENDBRANCH  27  28
BRANCH  27  31
ATOM     31  C   UNL     1      -2.989  -1.459   2.256  1.00  0.00     0.326 C 
ATOM     32  O   UNL     1      -3.755  -0.898   3.086  1.00  0.00    -0.250 OA
BRANCH  31  33
ATOM     33  O   UNL     1      -2.161  -2.496   2.682  1.00  0.00    -0.480 OA
ATOM     34  H   UNL     1      -2.183  -2.820   3.641  1.00  0.00     0.296 HD
ENDBRANCH  31  33
ENDBRANCH  27  31
ENDBRANCH   1  27
TORSDOF 12
