REMARK SMILES OCc1cc(C(O)CNCCCCCCOCCCCc2ccccc2)ccc1O
REMARK SMILES IDX 12 1 11 2 10 3 9 4 8 6 6 7 5 8 3 9 29 10 4 11 28 12 27 13
REMARK SMILES IDX 2 14 1 15 30 17 7 19 13 21 14 22 15 23 16 24 17 25 18 26
REMARK SMILES IDX 19 27 20 28 21 29 22 30 26 31 23 32 25 33 24 34
REMARK H PARENT 9 5 1 16 30 18 7 20
REMARK Flexibility Score: inf
ROOT
ATOM      1  C   UNL     1      -0.175  -0.222  -0.265  1.00  0.00     0.001 C 
ENDROOT
BRANCH   1   2
ATOM      2  C   UNL     1      -0.957   1.000  -0.776  1.00  0.00     0.015 C 
BRANCH   2   3
ATOM      3  C   UNL     1      -1.517   0.774  -2.189  1.00  0.00     0.081 C 
BRANCH   3   4
ATOM      4  N   UNL     1      -2.530  -0.293  -2.196  1.00  0.00    -0.314 NA
ATOM      5  H   UNL     1      -2.559  -0.696  -3.163  1.00  0.00     0.122 HD
BRANCH   4   6
ATOM      6  C   UNL     1      -3.869   0.232  -1.892  1.00  0.00     0.117 C 
BRANCH   6   7
ATOM      7  C   UNL     1      -4.847  -0.924  -1.646  1.00  0.00     0.158 C 
BRANCH   7   8
ATOM      8  C   UNL     1      -6.166  -0.385  -1.135  1.00  0.00    -0.018 A 
ATOM      9  C   UNL     1      -7.625   0.177   0.741  1.00  0.00     0.020 A 
ATOM     10  C   UNL     1      -8.570   0.707  -0.157  1.00  0.00     0.121 A 
ATOM     11  C   UNL     1      -6.434  -0.377   0.244  1.00  0.00     0.016 A 
ATOM     12  C   UNL     1      -8.298   0.712  -1.532  1.00  0.00     0.047 A 
ATOM     13  C   UNL     1      -7.102   0.181  -2.017  1.00  0.00     0.010 A 
BRANCH   9  14
ATOM     14  C   UNL     1      -7.900   0.146   2.222  1.00  0.00     0.195 C 
BRANCH  14  15
ATOM     15  O   UNL     1      -8.588  -1.027   2.559  1.00  0.00    -0.392 OA
ATOM     16  H   UNL     1      -9.536  -0.886   2.296  1.00  0.00     0.211 HD
ENDBRANCH  14  15
ENDBRANCH   9  14
BRANCH  10  17
ATOM     17  O   UNL     1      -9.773   1.231   0.317  1.00  0.00    -0.508 OA
ATOM     18  H   UNL     1     -10.473   1.605  -0.311  1.00  0.00     0.293 HD
ENDBRANCH  10  17
ENDBRANCH   7   8
BRANCH   7  19
ATOM     19  O   UNL     1      -5.038  -1.644  -2.838  1.00  0.00    -0.387 OA
ATOM     20  H   UNL     1      -5.492  -2.492  -2.590  1.00  0.00     0.211 HD
ENDBRANCH   7  19
ENDBRANCH   6   7
ENDBRANCH   4   6
ENDBRANCH   3   4
ENDBRANCH   2   3
ENDBRANCH   1   2
BRANCH   1  21
ATOM     21  C   UNL     1       0.176  -0.121   1.230  1.00  0.00     0.002 C 
BRANCH  21  22
ATOM     22  C   UNL     1       1.072   1.075   1.606  1.00  0.00     0.028 C 
BRANCH  22  23
ATOM     23  C   UNL     1       2.432   1.085   0.888  1.00  0.00     0.160 C 
BRANCH  23  24
ATOM     24  O   UNL     1       3.088  -0.165   0.986  1.00  0.00    -0.381 OA
BRANCH  24  25
ATOM     25  C   UNL     1       3.774  -0.302   2.219  1.00  0.00     0.160 C 
BRANCH  25  26
ATOM     26  C   UNL     1       5.278  -0.437   1.972  1.00  0.00     0.029 C 
BRANCH  26  27
ATOM     27  C   UNL     1       5.881   0.863   1.417  1.00  0.00     0.007 C 
BRANCH  27  28
ATOM     28  C   UNL     1       7.407   0.781   1.269  1.00  0.00     0.035 C 
BRANCH  28  29
ATOM     29  C   UNL     1       7.818  -0.198   0.198  1.00  0.00    -0.048 A 
ATOM     30  C   UNL     1       8.269  -1.485   0.542  1.00  0.00     0.004 A 
ATOM     31  C   UNL     1       7.723   0.158  -1.159  1.00  0.00     0.004 A 
ATOM     32  C   UNL     1       8.632  -2.394  -0.457  1.00  0.00     0.000 A 
ATOM     33  C   UNL     1       8.084  -0.756  -2.154  1.00  0.00     0.000 A 
ATOM     34  C   UNL     1       8.538  -2.030  -1.804  1.00  0.00     0.000 A 
ENDBRANCH  28  29
ENDBRANCH  27  28
ENDBRANCH  26  27
ENDBRANCH  25  26
ENDBRANCH  24  25
ENDBRANCH  23  24
ENDBRANCH  22  23
ENDBRANCH  21  22
ENDBRANCH   1  21
TORSDOF 19
