REMARK SMILES COc1cc(C)c(/C=C/C(C)=C/C=C/C(C)=C/C(=O)O)c(C)c1C
REMARK SMILES IDX 10 1 11 2 12 3 9 4 8 5 7 6 3 7 23 8 4 9 24 10 21 11 5 12
REMARK SMILES IDX 22 13 6 14 2 15 1 16 13 17 14 18 15 19 16 20 17 21 18 22
REMARK SMILES IDX 19 23 20 24
REMARK H PARENT 20 25
REMARK Flexibility Score: inf
ROOT
ATOM      1  C   UNL     1       1.237  -0.339   0.736  1.00  0.00    -0.051 C 
ATOM      2  C   UNL     1       1.551  -1.294   1.864  1.00  0.00     0.044 C 
ATOM      3  C   UNL     1       2.211   0.253   0.018  1.00  0.00     0.003 C 
ENDROOT
BRANCH   1   4
ATOM      4  C   UNL     1      -0.171  -0.036   0.378  1.00  0.00     0.004 C 
ATOM      5  C   UNL     1      -1.179  -0.893   0.584  1.00  0.00     0.009 C 
BRANCH   5   6
ATOM      6  C   UNL     1      -2.576  -0.547   0.230  1.00  0.00    -0.019 A 
ATOM      7  C   UNL     1      -5.253   0.060  -0.444  1.00  0.00     0.122 A 
ATOM      8  C   UNL     1      -4.923  -0.252   0.890  1.00  0.00    -0.005 A 
ATOM      9  C   UNL     1      -4.256   0.033  -1.430  1.00  0.00     0.050 A 
ATOM     10  C   UNL     1      -6.013  -0.265   1.938  1.00  0.00     0.049 C 
ATOM     11  C   UNL     1      -3.569  -0.501   1.244  1.00  0.00    -0.037 A 
ATOM     12  C   UNL     1      -2.936  -0.307  -1.118  1.00  0.00    -0.040 A 
ATOM     13  C   UNL     1      -3.195  -0.757   2.692  1.00  0.00     0.045 C 
ATOM     14  C   UNL     1      -1.930  -0.385  -2.241  1.00  0.00     0.045 C 
BRANCH   7  15
ATOM     15  O   UNL     1      -6.583   0.392  -0.759  1.00  0.00    -0.496 OA
ATOM     16  C   UNL     1      -7.053   0.728  -2.061  1.00  0.00     0.278 C 
ENDBRANCH   7  15
ENDBRANCH   5   6
ENDBRANCH   1   4
BRANCH   3  17
ATOM     17  C   UNL     1       3.655  -0.009   0.204  1.00  0.00     0.001 C 
ATOM     18  C   UNL     1       4.568   0.670  -0.501  1.00  0.00     0.003 C 
BRANCH  18  19
ATOM     19  C   UNL     1       6.029   0.432  -0.377  1.00  0.00    -0.044 C 
ATOM     20  C   UNL     1       6.607  -0.072   0.924  1.00  0.00     0.044 C 
ATOM     21  C   UNL     1       6.801   0.699  -1.452  1.00  0.00     0.096 C 
BRANCH  21  22
ATOM     22  C   UNL     1       8.256   0.457  -1.565  1.00  0.00     0.328 C 
ATOM     23  O   UNL     1       8.877  -0.261  -0.737  1.00  0.00    -0.247 OA
BRANCH  22  24
ATOM     24  O   UNL     1       8.944   1.004  -2.643  1.00  0.00    -0.478 OA
ATOM     25  H   UNL     1       9.937   0.847  -2.761  1.00  0.00     0.297 HD
ENDBRANCH  22  24
ENDBRANCH  21  22
ENDBRANCH  18  19
ENDBRANCH   3  17
TORSDOF 7
