REMARK SMILES O=P(O)(O)C(O)(Cc1cccnc1)P(=O)(O)O
REMARK SMILES IDX 5 1 6 2 7 4 8 5 13 6 9 7 12 8 10 9 11 10 2 11 1 12 3 13 4 15
REMARK SMILES IDX 14 17 15 18 16 19 17 21
REMARK H PARENT 6 3 3 14 4 16 16 20 17 22
REMARK Flexibility Score: inf
ROOT
ATOM      1  C   UNL     1      -1.037  -0.223  -0.294  1.00  0.00     0.271 C 
ENDROOT
BRANCH   1   2
ATOM      2  O   UNL     1      -0.849  -0.907  -1.508  1.00  0.00    -0.367 OA
ATOM      3  H   UNL     1      -0.004  -0.586  -1.917  1.00  0.00     0.213 HD
ENDBRANCH   1   2
BRANCH   1   4
ATOM      4  C   UNL     1      -0.090  -0.781   0.800  1.00  0.00     0.099 C 
BRANCH   4   5
ATOM      5  C   UNL     1       1.380  -0.658   0.475  1.00  0.00    -0.025 A 
ATOM      6  C   UNL     1       2.016  -1.607  -0.341  1.00  0.00     0.114 A 
ATOM      7  C   UNL     1       2.145   0.397   0.998  1.00  0.00     0.007 A 
ATOM      8  N   UNL     1       3.340  -1.489  -0.627  1.00  0.00    -0.264 NA
ATOM      9  C   UNL     1       3.502   0.496   0.688  1.00  0.00     0.020 A 
ATOM     10  C   UNL     1       4.088  -0.466  -0.136  1.00  0.00     0.111 A 
ENDBRANCH   4   5
ENDBRANCH   1   4
BRANCH   1  11
ATOM     11  P   UNL     1      -2.763  -0.524   0.235  1.00  0.00     0.369 P 
ATOM     12  O   UNL     1      -3.066   0.264   1.490  1.00  0.00    -0.256 OA
BRANCH  11  13
ATOM     13  O   UNL     1      -3.827  -0.056  -0.996  1.00  0.00    -0.322 OA
ATOM     14  H   UNL     1      -4.730  -0.232  -0.632  1.00  0.00     0.221 HD
ENDBRANCH  11  13
BRANCH  11  15
ATOM     15  O   UNL     1      -2.972  -2.174   0.546  1.00  0.00    -0.322 OA
ATOM     16  H   UNL     1      -3.920  -2.263   0.820  1.00  0.00     0.221 HD
ENDBRANCH  11  15
ENDBRANCH   1  11
BRANCH   1  17
ATOM     17  P   UNL     1      -0.805   1.590  -0.537  1.00  0.00     0.369 P 
ATOM     18  O   UNL     1      -0.886   2.302   0.796  1.00  0.00    -0.256 OA
BRANCH  17  19
ATOM     19  O   UNL     1      -1.999   2.193  -1.576  1.00  0.00    -0.322 OA
ATOM     20  H   UNL     1      -2.741   2.476  -0.984  1.00  0.00     0.221 HD
ENDBRANCH  17  19
BRANCH  17  21
ATOM     21  O   UNL     1       0.708   1.889  -1.234  1.00  0.00    -0.322 OA
ATOM     22  H   UNL     1       0.745   2.872  -1.346  1.00  0.00     0.221 HD
ENDBRANCH  17  21
ENDBRANCH   1  17
TORSDOF 9
