REMARK SMILES CN1CCC(=C2c3ccccc3CCc3cccnc32)CC1
REMARK SMILES IDX 1 1 2 2 3 3 4 4 5 5 21 6 22 7 6 8 7 9 8 10 12 11 9 12 11 13
REMARK SMILES IDX 10 14 13 15 20 17 15 18 19 19 16 20 18 21 17 22 14 23
REMARK H PARENT
REMARK Flexibility Score: 80.00
ROOT
ATOM      1  C   UNL     1       4.036  -0.075   1.674  1.00  0.00     0.105 C 
ATOM      2  N   UNL     1       3.764   0.462   0.331  1.00  0.00    -0.306 NA
ATOM      3  C   UNL     1       2.755   1.555   0.377  1.00  0.00     0.088 C 
ATOM      4  C   UNL     1       1.703   1.477  -0.736  1.00  0.00     0.047 C 
ATOM      5  C   UNL     1       1.056   0.107  -0.705  1.00  0.00    -0.058 C 
ATOM      6  C   UNL     1       2.006  -1.069  -0.616  1.00  0.00     0.047 C 
ATOM      7  C   UNL     1       3.477  -0.620  -0.639  1.00  0.00     0.088 C 
ATOM      8  C   UNL     1      -0.295  -0.064  -0.657  1.00  0.00     0.007 C 
ENDROOT
BRANCH   8   9
ATOM      9  C   UNL     1      -1.214   1.089  -0.685  1.00  0.00    -0.013 A 
ATOM     10  C   UNL     1      -1.400   1.827  -1.865  1.00  0.00     0.009 A 
ATOM     11  C   UNL     1      -1.915   1.440   0.478  1.00  0.00    -0.040 A 
ATOM     12  C   UNL     1      -2.280   2.912  -1.881  1.00  0.00     0.001 A 
ATOM     13  C   UNL     1      -2.808   2.524   0.451  1.00  0.00     0.004 A 
ATOM     14  C   UNL     1      -2.984   3.259  -0.725  1.00  0.00     0.000 A 
BRANCH  11  15
ATOM     15  C   UNL     1      -1.738   0.612   1.721  1.00  0.00     0.041 CG0
ATOM     16  G   UNL     1      -2.433  -0.743   1.565  1.00  0.00     0.000 G0
ENDBRANCH  11  15
ENDBRANCH   8   9
BRANCH   8  17
ATOM     17  C   UNL     1      -0.916  -1.404  -0.492  1.00  0.00     0.074 A 
ATOM     18  C   UNL     1      -1.877  -1.708   0.521  1.00  0.00    -0.021 A 
ATOM     19  N   UNL     1      -0.574  -2.369  -1.391  1.00  0.00    -0.256 NA
ATOM     20  C   UNL     1      -2.410  -3.010   0.548  1.00  0.00     0.007 A 
ATOM     21  C   UNL     1      -1.086  -3.624  -1.357  1.00  0.00     0.112 A 
ATOM     22  C   UNL     1      -2.014  -3.967  -0.381  1.00  0.00     0.020 A 
BRANCH  18  23
ATOM     23  C   UNL     1      -2.433  -0.743   1.565  1.00  0.00     0.042 CG0
ATOM     24  G   UNL     1      -1.738   0.612   1.721  1.00  0.00     0.000 G0
ENDBRANCH  18  23
ENDBRANCH   8  17
TORSDOF 0
