REMARK SMILES NS(=O)(=O)c1cc2c(cc1Cl)NC(C1CC3C=CC1C3)NS2(=O)=O
REMARK SMILES IDX 5 1 10 2 11 3 9 4 8 5 12 6 13 7 21 8 22 9 23 10 24 11 7 12
REMARK SMILES IDX 6 13 2 16 3 17 4 18 1 19 14 22 15 23 19 24 16 25 20 26 18 27
REMARK SMILES IDX 17 28
REMARK H PARENT 12 14 21 15 1 20 1 21
REMARK Flexibility Score: inf
ROOT
ATOM      1  C   UNL     1       4.135   0.553  -0.141  1.00  0.00     0.102 A 
ATOM      2  C   UNL     1       3.584   1.299  -1.205  1.00  0.00     0.063 A 
ATOM      3  Cl  UNL     1       4.589   2.254  -2.291  1.00  0.00    -0.083 Cl
ATOM      4  C   UNL     1       2.201   1.293  -1.423  1.00  0.00     0.049 A 
ATOM      5  C   UNL     1       1.351   0.547  -0.597  1.00  0.00     0.057 A 
ATOM      6  N   UNL     1      -0.067   0.545  -0.841  1.00  0.00    -0.368 N 
ATOM      7  C   UNL     1      -0.948  -0.488  -0.274  1.00  0.00     0.166 C 
ATOM      8  N   UNL     1      -0.799  -0.552   1.186  1.00  0.00    -0.189 NA
ATOM      9  S   UNL     1       0.822  -1.049   1.550  1.00  0.00     0.244 S 
ATOM     10  O   UNL     1       0.960  -2.530   1.334  1.00  0.00    -0.207 OA
ATOM     11  O   UNL     1       1.138  -0.709   2.979  1.00  0.00    -0.207 OA
ATOM     12  C   UNL     1       1.896  -0.180   0.471  1.00  0.00     0.107 A 
ATOM     13  C   UNL     1       3.277  -0.181   0.694  1.00  0.00     0.047 A 
ATOM     14  H   UNL     1      -0.460   1.249  -1.506  1.00  0.00     0.162 HD
ATOM     15  H   UNL     1      -0.902   0.412   1.579  1.00  0.00     0.143 HD
ENDROOT
BRANCH   1  16
ATOM     16  S   UNL     1       5.882   0.545   0.151  1.00  0.00     0.239 S 
ATOM     17  O   UNL     1       6.343   1.949   0.426  1.00  0.00    -0.207 OA
ATOM     18  O   UNL     1       6.584   0.020  -1.070  1.00  0.00    -0.207 OA
BRANCH  16  19
ATOM     19  N   UNL     1       6.311  -0.449   1.501  1.00  0.00    -0.225 NA
ATOM     20  H   UNL     1       5.805  -0.081   2.338  1.00  0.00     0.137 HD
ATOM     21  H   UNL     1       5.954  -1.412   1.310  1.00  0.00     0.137 HD
ENDBRANCH  16  19
ENDBRANCH   1  16
BRANCH   7  22
ATOM     22  C   UNL     1      -2.420  -0.260  -0.714  1.00  0.00     0.035 C 
ATOM     23  C   UNL     1      -3.064   1.087  -0.276  1.00  0.00     0.015 C 
ATOM     24  C   UNL     1      -3.429  -1.297  -0.150  1.00  0.00     0.018 C 
ATOM     25  C   UNL     1      -4.388   0.627   0.376  1.00  0.00     0.012 C 
ATOM     26  C   UNL     1      -3.943  -0.618   1.111  1.00  0.00     0.016 C 
ATOM     27  C   UNL     1      -4.671  -1.180  -0.998  1.00  0.00    -0.027 C 
ATOM     28  C   UNL     1      -5.238  -0.009  -0.695  1.00  0.00    -0.028 C 
ENDBRANCH   7  22
TORSDOF 3
