REMARK SMILES CCC1(c2ccccc2)C(=O)NCNC1=O
REMARK SMILES IDX 3 1 10 2 11 3 12 4 13 5 14 6 15 7 16 8 2 11 1 12 4 13 5 14
REMARK SMILES IDX 9 15 6 16 8 17 7 18
REMARK H PARENT 12 9 14 10
REMARK Flexibility Score: inf
ROOT
ATOM      1  C   UNL     1      -0.495  -0.447   0.072  1.00  0.00     0.152 C 
ATOM      2  C   UNL     1      -1.017   0.205   1.350  1.00  0.00     0.241 C 
ATOM      3  O   UNL     1      -0.850  -0.351   2.470  1.00  0.00    -0.273 OA
ATOM      4  N   UNL     1      -1.663   1.483   1.301  1.00  0.00    -0.337 N 
ATOM      5  C   UNL     1      -1.773   2.212   0.045  1.00  0.00     0.236 C 
ATOM      6  N   UNL     1      -2.040   1.279  -1.041  1.00  0.00    -0.337 N 
ATOM      7  C   UNL     1      -1.381   0.009  -1.088  1.00  0.00     0.241 C 
ATOM      8  O   UNL     1      -1.485  -0.697  -2.129  1.00  0.00    -0.273 OA
ATOM      9  H   UNL     1      -2.024   1.916   2.180  1.00  0.00     0.165 HD
ATOM     10  H   UNL     1      -2.656   1.574  -1.832  1.00  0.00     0.165 HD
ENDROOT
BRANCH   1  11
ATOM     11  C   UNL     1      -0.538  -2.005   0.187  1.00  0.00     0.028 C 
ATOM     12  C   UNL     1      -1.942  -2.585   0.411  1.00  0.00     0.006 C 
ENDBRANCH   1  11
BRANCH   1  13
ATOM     13  C   UNL     1       0.969  -0.007  -0.134  1.00  0.00    -0.023 A 
ATOM     14  C   UNL     1       1.916  -0.224   0.893  1.00  0.00     0.005 A 
ATOM     15  C   UNL     1       1.426   0.589  -1.336  1.00  0.00     0.005 A 
ATOM     16  C   UNL     1       3.252   0.153   0.733  1.00  0.00     0.000 A 
ATOM     17  C   UNL     1       2.764   0.963  -1.487  1.00  0.00     0.000 A 
ATOM     18  C   UNL     1       3.675   0.747  -0.454  1.00  0.00     0.000 A 
ENDBRANCH   1  13
TORSDOF 2
