REMARK SMILES CN1CC[C@]23CCCC[C@H]2[C@H]1Cc1ccc(O)cc13
REMARK SMILES IDX 10 1 9 2 8 3 7 4 6 5 5 6 4 7 3 8 2 9 1 10 11 11 12 12 13 13
REMARK SMILES IDX 19 14 18 15 16 16 15 17 14 18 17 19
REMARK H PARENT 17 20
REMARK Flexibility Score: inf
ROOT
ATOM      1  C   UNL     1      -1.324   0.483  -0.221  1.00  0.00     0.017 C 
ATOM      2  C   UNL     1      -1.403   1.375  -1.490  1.00  0.00     0.006 C 
ATOM      3  C   UNL     1      -1.128   2.841  -1.151  1.00  0.00     0.000 C 
ATOM      4  C   UNL     1       0.227   2.987  -0.454  1.00  0.00     0.001 C 
ATOM      5  C   UNL     1       0.271   2.127   0.815  1.00  0.00     0.012 C 
ATOM      6  C   UNL     1       0.036   0.611   0.521  1.00  0.00     0.001 C 
ATOM      7  C   UNL     1      -0.040  -0.168   1.878  1.00  0.00     0.027 C 
ATOM      8  C   UNL     1      -1.230  -1.142   1.965  1.00  0.00     0.085 C 
ATOM      9  N   UNL     1      -1.415  -1.879   0.700  1.00  0.00    -0.303 NA
ATOM     10  C   UNL     1      -2.527  -2.835   0.823  1.00  0.00     0.105 C 
ATOM     11  C   UNL     1      -1.564  -1.021  -0.514  1.00  0.00     0.064 C 
ATOM     12  C   UNL     1      -0.552  -1.520  -1.557  1.00  0.00     0.055 C 
ATOM     13  C   UNL     1       0.862  -1.059  -1.272  1.00  0.00    -0.042 A 
ATOM     14  C   UNL     1       1.156  -0.023  -0.337  1.00  0.00    -0.034 A 
ATOM     15  C   UNL     1       2.512   0.300  -0.105  1.00  0.00     0.050 A 
ATOM     16  C   UNL     1       3.536  -0.311  -0.839  1.00  0.00     0.115 A 
ATOM     17  C   UNL     1       3.226  -1.274  -1.796  1.00  0.00     0.046 A 
ATOM     18  C   UNL     1       1.901  -1.650  -2.007  1.00  0.00     0.008 A 
ENDROOT
BRANCH  16  19
ATOM     19  O   UNL     1       4.869   0.031  -0.618  1.00  0.00    -0.508 OA
ATOM     20  H   UNL     1       5.131   0.727   0.070  1.00  0.00     0.293 HD
ENDBRANCH  16  19
TORSDOF 1
