REMARK SMILES Nc1nc(=O)c2c([nH]1)NCC(CNc1ccc(C(=O)N[C@@H](CCC(=O)O)C(=O)O)cc1)N2
REMARK SMILES IDX 18 1 19 2 20 3 17 5 14 6 15 7 31 8 16 9 30 10 13 11 12 13
REMARK SMILES IDX 11 14 2 15 3 16 8 17 4 18 7 19 5 21 6 22 9 23 32 24 10 25
REMARK SMILES IDX 1 28 21 31 22 32 23 33 24 34 25 35 26 36 27 38 28 39 29 40
REMARK H PARENT 20 4 13 12 8 20 9 26 32 27 1 29 1 30 26 37 29 41
REMARK Flexibility Score: inf
ROOT
ATOM      1  C   UNL     1      -3.986  -0.666   0.688  1.00  0.00     0.251 C 
ATOM      2  O   UNL     1      -4.375  -1.855   0.850  1.00  0.00    -0.269 OA
ATOM      3  N   UNL     1      -4.933   0.416   0.771  1.00  0.00    -0.339 N 
ATOM      4  H   UNL     1      -4.628   1.378   0.502  1.00  0.00     0.164 HD
ENDROOT
BRANCH   1   5
ATOM      5  C   UNL     1      -2.555  -0.408   0.405  1.00  0.00     0.039 A 
ATOM      6  C   UNL     1       0.184   0.050  -0.119  1.00  0.00     0.034 A 
ATOM      7  C   UNL     1      -0.419  -1.167  -0.485  1.00  0.00     0.026 A 
ATOM      8  C   UNL     1      -0.595   1.029   0.515  1.00  0.00     0.026 A 
ATOM      9  C   UNL     1      -1.773  -1.394  -0.220  1.00  0.00     0.016 A 
ATOM     10  C   UNL     1      -1.949   0.804   0.777  1.00  0.00     0.016 A 
BRANCH   6  11
ATOM     11  N   UNL     1       1.578   0.312  -0.370  1.00  0.00    -0.383 N 
ATOM     12  H   UNL     1       1.965   1.237  -0.071  1.00  0.00     0.160 HD
BRANCH  11  13
ATOM     13  C   UNL     1       2.470  -0.647  -1.029  1.00  0.00     0.139 C 
BRANCH  13  14
ATOM     14  C   UNL     1       3.907  -0.104  -1.121  1.00  0.00     0.117 C 
ATOM     15  C   UNL     1       8.668   0.459   0.534  1.00  0.00     0.202 A 
ATOM     16  N   UNL     1       7.879   0.700   1.616  1.00  0.00    -0.173 NA
ATOM     17  N   UNL     1       8.107   0.057  -0.642  1.00  0.00    -0.311 N 
ATOM     18  C   UNL     1       6.530   0.557   1.552  1.00  0.00     0.300 A 
ATOM     19  C   UNL     1       6.759  -0.108  -0.747  1.00  0.00     0.135 A 
ATOM     20  H   UNL     1       8.717  -0.136  -1.467  1.00  0.00     0.171 HD
ATOM     21  O   UNL     1       5.830   0.796   2.571  1.00  0.00    -0.265 OA
ATOM     22  C   UNL     1       5.933   0.156   0.351  1.00  0.00     0.144 A 
ATOM     23  N   UNL     1       6.171  -0.560  -1.974  1.00  0.00    -0.368 N 
ATOM     24  N   UNL     1       4.510   0.015   0.213  1.00  0.00    -0.371 N 
ATOM     25  C   UNL     1       4.780  -1.014  -2.004  1.00  0.00     0.141 C 
ATOM     26  H   UNL     1       6.753  -0.637  -2.837  1.00  0.00     0.162 HD
ATOM     27  H   UNL     1       3.903   0.043   1.063  1.00  0.00     0.161 HD
BRANCH  15  28
ATOM     28  N   UNL     1      10.082   0.623   0.638  1.00  0.00    -0.369 N 
ATOM     29  H   UNL     1      10.702   0.449  -0.184  1.00  0.00     0.159 HD
ATOM     30  H   UNL     1      10.513   0.925   1.540  1.00  0.00     0.159 HD
ENDBRANCH  15  28
ENDBRANCH  13  14
ENDBRANCH  11  13
ENDBRANCH   6  11
ENDBRANCH   1   5
BRANCH   3  31
ATOM     31  C   UNL     1      -6.338   0.249   1.165  1.00  0.00     0.192 C 
BRANCH  31  32
ATOM     32  C   UNL     1      -7.129  -0.551   0.102  1.00  0.00     0.049 C 
BRANCH  32  33
ATOM     33  C   UNL     1      -7.022   0.039  -1.312  1.00  0.00     0.125 C 
BRANCH  33  34
ATOM     34  C   UNL     1      -7.636   1.402  -1.394  1.00  0.00     0.303 C 
ATOM     35  O   UNL     1      -6.901   2.424  -1.443  1.00  0.00    -0.252 OA
BRANCH  34  36
ATOM     36  O   UNL     1      -9.020   1.540  -1.384  1.00  0.00    -0.481 OA
ATOM     37  H   UNL     1      -9.451   2.456  -1.429  1.00  0.00     0.296 HD
ENDBRANCH  34  36
ENDBRANCH  33  34
ENDBRANCH  32  33
ENDBRANCH  31  32
BRANCH  31  38
ATOM     38  C   UNL     1      -6.431  -0.371   2.537  1.00  0.00     0.326 C 
ATOM     39  O   UNL     1      -7.425  -1.077   2.858  1.00  0.00    -0.250 OA
BRANCH  38  40
ATOM     40  O   UNL     1      -5.449  -0.099   3.486  1.00  0.00    -0.480 OA
ATOM     41  H   UNL     1      -5.506  -0.488   4.419  1.00  0.00     0.296 HD
ENDBRANCH  38  40
ENDBRANCH  31  38
ENDBRANCH   3  31
TORSDOF 12
