REMARK SMILES Cc1ccc(O)c([C@H](CCN(C(C)C)C(C)C)c2ccccc2)c1
REMARK SMILES IDX 9 1 10 2 11 3 12 4 13 5 14 6 15 7 16 8 17 9 8 10 18 11 19 12
REMARK SMILES IDX 23 13 20 14 22 15 21 16 7 17 5 18 24 19 4 20 2 21 3 22 1 23
REMARK SMILES IDX 6 24
REMARK H PARENT 6 25
REMARK Flexibility Score: inf
ROOT
ATOM      1  C   UNL     1      -0.141   0.170   1.496  1.00  0.00     0.029 C 
ENDROOT
BRANCH   1   2
ATOM      2  C   UNL     1      -1.570  -0.395   1.383  1.00  0.00     0.086 C 
BRANCH   2   3
ATOM      3  N   UNL     1      -2.292   0.087   0.166  1.00  0.00    -0.299 NA
BRANCH   3   4
ATOM      4  C   UNL     1      -2.746   1.521   0.196  1.00  0.00     0.050 C 
ATOM      5  C   UNL     1      -3.117   2.065   1.588  1.00  0.00     0.024 C 
ATOM      6  C   UNL     1      -1.740   2.433  -0.516  1.00  0.00     0.024 C 
ENDBRANCH   3   4
BRANCH   3   7
ATOM      7  C   UNL     1      -3.363  -0.808  -0.382  1.00  0.00     0.050 C 
ATOM      8  C   UNL     1      -3.382  -0.682  -1.916  1.00  0.00     0.024 C 
ATOM      9  C   UNL     1      -3.230  -2.307  -0.038  1.00  0.00     0.024 C 
ENDBRANCH   3   7
ENDBRANCH   2   3
ENDBRANCH   1   2
BRANCH   1  10
ATOM     10  C   UNL     1       0.722  -0.092   0.233  1.00  0.00     0.054 C 
BRANCH  10  11
ATOM     11  C   UNL     1       0.928  -1.557  -0.134  1.00  0.00    -0.040 A 
ATOM     12  C   UNL     1       1.021  -2.583   0.830  1.00  0.00     0.004 A 
ATOM     13  C   UNL     1       1.072  -1.897  -1.493  1.00  0.00     0.004 A 
ATOM     14  C   UNL     1       1.225  -3.909   0.438  1.00  0.00     0.000 A 
ATOM     15  C   UNL     1       1.276  -3.225  -1.879  1.00  0.00     0.000 A 
ATOM     16  C   UNL     1       1.350  -4.230  -0.915  1.00  0.00     0.000 A 
ENDBRANCH  10  11
BRANCH  10  17
ATOM     17  C   UNL     1       2.050   0.650   0.297  1.00  0.00     0.002 A 
ATOM     18  C   UNL     1       3.038   0.351   1.265  1.00  0.00     0.119 A 
ATOM     19  C   UNL     1       2.305   1.674  -0.637  1.00  0.00     0.011 A 
ATOM     20  C   UNL     1       4.240   1.071   1.283  1.00  0.00     0.047 A 
ATOM     21  C   UNL     1       3.517   2.378  -0.624  1.00  0.00    -0.051 A 
ATOM     22  C   UNL     1       4.476   2.081   0.351  1.00  0.00     0.007 A 
ATOM     23  C   UNL     1       3.754   3.491  -1.602  1.00  0.00     0.044 C 
BRANCH  18  24
ATOM     24  O   UNL     1       2.829  -0.651   2.210  1.00  0.00    -0.508 OA
ATOM     25  H   UNL     1       3.526  -0.878   2.910  1.00  0.00     0.293 HD
ENDBRANCH  18  24
ENDBRANCH  10  17
ENDBRANCH   1  10
TORSDOF 8
