REMARK SMILES C=CCC1(C(C)CCC)C(=O)NC(=S)NC1=O
REMARK SMILES IDX 4 1 10 2 11 3 12 4 13 5 14 6 15 7 16 8 17 9 5 12 6 13 7 14
REMARK SMILES IDX 8 15 9 16 3 17 2 18 1 19
REMARK H PARENT 12 10 15 11
REMARK Flexibility Score: inf
ROOT
ATOM      1  C   UNL     1      -0.956  -0.242  -0.331  1.00  0.00     0.134 C 
ATOM      2  C   UNL     1      -1.444   0.347   0.999  1.00  0.00     0.242 C 
ATOM      3  O   UNL     1      -1.573   1.597   1.114  1.00  0.00    -0.273 OA
ATOM      4  N   UNL     1      -1.695  -0.464   2.149  1.00  0.00    -0.302 N 
ATOM      5  C   UNL     1      -1.481  -1.871   2.128  1.00  0.00     0.179 C 
ATOM      6  S   UNL     1      -1.685  -2.753   3.492  1.00  0.00    -0.040 S 
ATOM      7  N   UNL     1      -1.119  -2.512   0.911  1.00  0.00    -0.302 N 
ATOM      8  C   UNL     1      -0.972  -1.774  -0.303  1.00  0.00     0.242 C 
ATOM      9  O   UNL     1      -0.819  -2.418  -1.377  1.00  0.00    -0.273 OA
ATOM     10  H   UNL     1      -2.004  -0.005   3.036  1.00  0.00     0.172 HD
ATOM     11  H   UNL     1      -1.013  -3.552   0.889  1.00  0.00     0.172 HD
ENDROOT
BRANCH   1  12
ATOM     12  C   UNL     1       0.520   0.268  -0.591  1.00  0.00     0.011 C 
ATOM     13  C   UNL     1       1.063  -0.088  -1.995  1.00  0.00     0.009 C 
BRANCH  12  14
ATOM     14  C   UNL     1       1.507  -0.234   0.505  1.00  0.00     0.005 C 
BRANCH  14  15
ATOM     15  C   UNL     1       2.850   0.514   0.498  1.00  0.00    -0.003 C 
ATOM     16  C   UNL     1       3.709   0.115   1.695  1.00  0.00     0.004 C 
ENDBRANCH  14  15
ENDBRANCH  12  14
ENDBRANCH   1  12
BRANCH   1  17
ATOM     17  C   UNL     1      -1.969   0.207  -1.440  1.00  0.00     0.054 C 
BRANCH  17  18
ATOM     18  C   UNL     1      -1.955   1.689  -1.741  1.00  0.00    -0.033 C 
ATOM     19  C   UNL     1      -3.012   2.470  -1.496  1.00  0.00     0.004 C 
ENDBRANCH  17  18
ENDBRANCH   1  17
TORSDOF 5
