REMARK SMILES CC(=O)N1CCN(c2ccc(OCC3COC(Cn4ccnc4)(c4ccc(Cl)cc4Cl)O3)cc2)CC1
REMARK SMILES IDX 13 1 12 2 11 3 8 4 9 5 34 6 10 7 33 8 7 9 1 10 2 11 3 12
REMARK SMILES IDX 4 13 5 14 36 15 6 16 35 17 14 18 15 19 32 20 16 21 17 22
REMARK SMILES IDX 18 23 19 24 20 25 23 26 21 27 22 28 24 29 25 30 30 31 26 32
REMARK SMILES IDX 29 33 31 34 27 35 28 36
REMARK H PARENT
REMARK Flexibility Score: inf
ROOT
ATOM      1  C   UNL     1      -1.703  -1.978  -0.533  1.00  0.00     0.264 C 
ENDROOT
BRANCH   1   2
ATOM      2  O   UNL     1      -0.463  -2.189  -1.209  1.00  0.00    -0.491 OA
BRANCH   2   3
ATOM      3  C   UNL     1       0.797  -1.760  -0.761  1.00  0.00     0.119 A 
ATOM      4  C   UNL     1       3.384  -0.961   0.045  1.00  0.00     0.037 A 
ATOM      5  C   UNL     1       3.179  -1.576  -1.202  1.00  0.00     0.030 A 
ATOM      6  C   UNL     1       2.277  -0.751   0.887  1.00  0.00     0.030 A 
ATOM      7  C   UNL     1       1.898  -1.968  -1.598  1.00  0.00     0.048 A 
ATOM      8  C   UNL     1       0.996  -1.146   0.490  1.00  0.00     0.048 A 
BRANCH   4   9
ATOM      9  N   UNL     1       4.712  -0.572   0.461  1.00  0.00    -0.368 N 
ATOM     10  C   UNL     1       9.059   2.211   0.559  1.00  0.00     0.114 C 
ATOM     11  C   UNL     1       8.725   0.783   0.873  1.00  0.00     0.219 C 
ATOM     12  O   UNL     1       9.670  -0.017   1.116  1.00  0.00    -0.275 OA
ATOM     13  N   UNL     1       7.357   0.324   0.926  1.00  0.00    -0.339 N 
ATOM     14  C   UNL     1       7.065  -1.111   1.053  1.00  0.00     0.141 C 
ATOM     15  C   UNL     1       6.251   1.297   0.942  1.00  0.00     0.141 C 
ATOM     16  C   UNL     1       5.842  -1.481   0.208  1.00  0.00     0.138 C 
ATOM     17  C   UNL     1       4.909   0.634   1.276  1.00  0.00     0.138 C 
ENDBRANCH   4   9
ENDBRANCH   2   3
ENDBRANCH   1   2
BRANCH   1  18
ATOM     18  C   UNL     1      -2.180  -0.527  -0.690  1.00  0.00     0.185 C 
ATOM     19  C   UNL     1      -2.367  -0.128  -2.128  1.00  0.00     0.200 C 
ATOM     20  O   UNL     1      -3.422  -0.373  -0.076  1.00  0.00    -0.335 OA
ATOM     21  O   UNL     1      -3.533   0.626  -2.163  1.00  0.00    -0.342 OA
ATOM     22  C   UNL     1      -4.274   0.248  -1.021  1.00  0.00     0.215 C 
BRANCH  22  23
ATOM     23  C   UNL     1      -5.365  -0.766  -1.439  1.00  0.00     0.194 C 
BRANCH  23  24
ATOM     24  N   UNL     1      -6.132  -1.231  -0.283  1.00  0.00    -0.332 N 
ATOM     25  C   UNL     1      -5.789  -2.206   0.574  1.00  0.00     0.107 A 
ATOM     26  C   UNL     1      -7.292  -0.727   0.178  1.00  0.00     0.199 A 
ATOM     27  C   UNL     1      -6.764  -2.276   1.543  1.00  0.00     0.130 A 
ATOM     28  N   UNL     1      -7.712  -1.348   1.300  1.00  0.00    -0.245 NA
ENDBRANCH  23  24
ENDBRANCH  22  23
BRANCH  22  29
ATOM     29  C   UNL     1      -4.925   1.491  -0.405  1.00  0.00     0.032 A 
ATOM     30  C   UNL     1      -4.975   1.629   1.001  1.00  0.00     0.012 A 
ATOM     31  C   UNL     1      -5.569   2.479  -1.199  1.00  0.00     0.051 A 
ATOM     32  C   UNL     1      -5.608   2.723   1.594  1.00  0.00     0.021 A 
ATOM     33  C   UNL     1      -6.196   3.573  -0.588  1.00  0.00     0.041 A 
ATOM     34  Cl  UNL     1      -5.653   2.392  -2.958  1.00  0.00    -0.084 Cl
ATOM     35  C   UNL     1      -6.214   3.696   0.802  1.00  0.00     0.042 A 
ATOM     36  Cl  UNL     1      -7.016   5.065   1.552  1.00  0.00    -0.084 Cl
ENDBRANCH  22  29
ENDBRANCH   1  18
TORSDOF 7
