REMARK SMILES Clc1ccc(C(Cn2ccnc2)OCc2ccsc2Cl)c(Cl)c1
REMARK SMILES IDX 6 1 13 2 14 3 15 4 20 5 19 6 18 7 16 8 17 9 7 10 8 11 9 12
REMARK SMILES IDX 12 13 10 14 11 15 5 16 21 17 4 18 22 19 23 20 3 21 2 22 1 23
REMARK H PARENT
REMARK Flexibility Score: inf
ROOT
ATOM      1  C   UNL     1      -0.095  -0.320  -0.228  1.00  0.00     0.170 C 
ENDROOT
BRANCH   1   2
ATOM      2  O   UNL     1       1.282  -0.348   0.119  1.00  0.00    -0.367 OA
BRANCH   2   3
ATOM      3  C   UNL     1       1.976  -1.333  -0.617  1.00  0.00     0.199 C 
BRANCH   3   4
ATOM      4  C   UNL     1       3.401  -1.363  -0.160  1.00  0.00     0.007 A 
ATOM      5  Cl  UNL     1       4.036   1.086  -1.396  1.00  0.00    -0.072 Cl
ATOM      6  C   UNL     1       4.324  -0.361  -0.447  1.00  0.00     0.098 A 
ATOM      7  S   UNL     1       5.782  -0.745   0.291  1.00  0.00    -0.132 S 
ATOM      8  C   UNL     1       3.929  -2.378   0.654  1.00  0.00     0.019 A 
ATOM      9  C   UNL     1       5.262  -2.183   0.992  1.00  0.00     0.067 A 
ENDBRANCH   3   4
ENDBRANCH   2   3
ENDBRANCH   1   2
BRANCH   1  10
ATOM     10  C   UNL     1      -0.900  -1.069   0.850  1.00  0.00     0.160 C 
BRANCH  10  11
ATOM     11  N   UNL     1      -2.322  -1.108   0.512  1.00  0.00    -0.335 N 
ATOM     12  C   UNL     1      -3.273  -0.250   0.914  1.00  0.00     0.107 A 
ATOM     13  C   UNL     1      -2.930  -1.963  -0.332  1.00  0.00     0.199 A 
ATOM     14  C   UNL     1      -4.452  -0.614   0.306  1.00  0.00     0.130 A 
ATOM     15  N   UNL     1      -4.243  -1.691  -0.481  1.00  0.00    -0.245 NA
ENDBRANCH  10  11
ENDBRANCH   1  10
BRANCH   1  16
ATOM     16  C   UNL     1      -0.543   1.131  -0.310  1.00  0.00     0.001 A 
ATOM     17  C   UNL     1      -1.370   1.609  -1.357  1.00  0.00     0.048 A 
ATOM     18  C   UNL     1      -0.168   2.021   0.716  1.00  0.00     0.009 A 
ATOM     19  Cl  UNL     1      -1.928   0.579  -2.673  1.00  0.00    -0.084 Cl
ATOM     20  C   UNL     1      -1.784   2.947  -1.365  1.00  0.00     0.041 A 
ATOM     21  C   UNL     1      -0.587   3.353   0.695  1.00  0.00     0.021 A 
ATOM     22  C   UNL     1      -1.393   3.817  -0.345  1.00  0.00     0.042 A 
ATOM     23  Cl  UNL     1      -1.922   5.489  -0.366  1.00  0.00    -0.084 Cl
ENDBRANCH   1  16
TORSDOF 6
