REMARK SMILES c1ccc2c(c1)Sc1ccccc1N2CC1CN2CCC1CC2
REMARK SMILES IDX 15 1 16 2 17 3 21 4 18 5 20 6 22 7 19 8 23 9 14 10 4 11
REMARK SMILES IDX 13 12 3 13 5 14 8 15 12 16 2 17 6 18 7 19 9 20 11 21 1 22
REMARK SMILES IDX 10 23
REMARK H PARENT
REMARK Flexibility Score: inf
ROOT
ATOM      1  C   UNL     1      -0.064   0.469  -1.175  1.00  0.00     0.128 C 
ENDROOT
BRANCH   1   2
ATOM      2  C   UNL     1       1.197  -0.138  -0.470  1.00  0.00     0.026 C 
ATOM      3  C   UNL     1       2.361  -0.380  -1.486  1.00  0.00     0.090 C 
ATOM      4  C   UNL     1       1.766   0.669   0.730  1.00  0.00    -0.002 C 
ATOM      5  N   UNL     1       3.655   0.120  -0.963  1.00  0.00    -0.303 NA
ATOM      6  C   UNL     1       2.866  -0.189   1.390  1.00  0.00     0.019 C 
ATOM      7  C   UNL     1       2.444   1.961   0.222  1.00  0.00     0.019 C 
ATOM      8  C   UNL     1       3.951  -0.528   0.337  1.00  0.00     0.085 C 
ATOM      9  C   UNL     1       3.569   1.588  -0.776  1.00  0.00     0.085 C 
ENDBRANCH   1   2
BRANCH   1  10
ATOM     10  N   UNL     1      -1.340   0.066  -0.538  1.00  0.00    -0.339 N 
ATOM     11  C   UNL     1      -2.022   0.954   0.406  1.00  0.00     0.055 A 
ATOM     12  C   UNL     1      -1.882  -1.273  -0.786  1.00  0.00     0.055 A 
ATOM     13  C   UNL     1      -1.369   2.043   1.028  1.00  0.00     0.027 A 
ATOM     14  C   UNL     1      -3.359   0.702   0.783  1.00  0.00     0.036 A 
ATOM     15  C   UNL     1      -3.216  -1.579  -0.443  1.00  0.00     0.036 A 
ATOM     16  C   UNL     1      -1.088  -2.323  -1.311  1.00  0.00     0.027 A 
ATOM     17  C   UNL     1      -1.969   2.737   2.082  1.00  0.00     0.002 A 
ATOM     18  C   UNL     1      -3.946   1.380   1.857  1.00  0.00     0.017 A 
ATOM     19  S   UNL     1      -4.412  -0.274  -0.269  1.00  0.00    -0.086 SA
ATOM     20  C   UNL     1      -3.676  -2.901  -0.448  1.00  0.00     0.017 A 
ATOM     21  C   UNL     1      -1.562  -3.637  -1.341  1.00  0.00     0.002 A 
ATOM     22  C   UNL     1      -3.243   2.384   2.519  1.00  0.00     0.001 A 
ATOM     23  C   UNL     1      -2.843  -3.931  -0.878  1.00  0.00     0.001 A 
ENDBRANCH   1  10
TORSDOF 2
