REMARK SMILES COc1ccc(Cc2nccc3cc(OC)c(OC)cc23)cc1OC
REMARK SMILES IDX 7 1 6 2 3 3 23 4 4 5 22 6 5 7 2 8 1 9 24 10 25 11 8 12 9 13
REMARK SMILES IDX 21 14 10 15 12 16 20 17 11 18 13 19 17 20 14 21 18 22 19 23
REMARK SMILES IDX 15 24 16 25
REMARK H PARENT
REMARK Flexibility Score: inf
ROOT
ATOM      1  C   UNL     1      -0.367   0.135   1.154  1.00  0.00     0.092 C 
ENDROOT
BRANCH   1   2
ATOM      2  C   UNL     1      -1.843   0.413   1.009  1.00  0.00    -0.038 A 
ATOM      3  C   UNL     1      -4.586   0.945   0.654  1.00  0.00     0.160 A 
ATOM      4  C   UNL     1      -4.102  -0.364   0.500  1.00  0.00     0.160 A 
ATOM      5  C   UNL     1      -3.692   1.984   0.976  1.00  0.00     0.051 A 
ATOM      6  C   UNL     1      -2.728  -0.623   0.675  1.00  0.00     0.054 A 
ATOM      7  C   UNL     1      -2.332   1.719   1.147  1.00  0.00     0.008 A 
BRANCH   3   8
ATOM      8  O   UNL     1      -5.960   1.173   0.476  1.00  0.00    -0.493 OA
ATOM      9  C   UNL     1      -6.589   2.445   0.598  1.00  0.00     0.278 C 
ENDBRANCH   3   8
BRANCH   4  10
ATOM     10  O   UNL     1      -5.015  -1.378   0.171  1.00  0.00    -0.493 OA
ATOM     11  C   UNL     1      -4.668  -2.746  -0.020  1.00  0.00     0.278 C 
ENDBRANCH   4  10
ENDBRANCH   1   2
BRANCH   1  12
ATOM     12  C   UNL     1       0.383   0.238  -0.159  1.00  0.00     0.053 A 
ATOM     13  N   UNL     1      -0.302   0.564  -1.293  1.00  0.00    -0.260 NA
ATOM     14  C   UNL     1       1.781   0.005  -0.240  1.00  0.00     0.008 A 
ATOM     15  C   UNL     1       0.297   0.675  -2.505  1.00  0.00     0.112 A 
ATOM     16  C   UNL     1       2.417   0.118  -1.500  1.00  0.00    -0.011 A 
ATOM     17  C   UNL     1       2.557  -0.334   0.886  1.00  0.00     0.061 A 
ATOM     18  C   UNL     1       1.665   0.454  -2.631  1.00  0.00     0.029 A 
ATOM     19  C   UNL     1       3.795  -0.106  -1.614  1.00  0.00     0.059 A 
ATOM     20  C   UNL     1       3.942  -0.558   0.767  1.00  0.00     0.161 A 
ATOM     21  C   UNL     1       4.562  -0.445  -0.485  1.00  0.00     0.161 A 
BRANCH  20  22
ATOM     22  O   UNL     1       4.740  -0.898   1.872  1.00  0.00    -0.493 OA
ATOM     23  C   UNL     1       4.258  -1.050   3.203  1.00  0.00     0.278 C 
ENDBRANCH  20  22
BRANCH  21  24
ATOM     24  O   UNL     1       5.945  -0.676  -0.565  1.00  0.00    -0.493 OA
ATOM     25  C   UNL     1       6.710  -0.597  -1.764  1.00  0.00     0.278 C 
ENDBRANCH  21  24
ENDBRANCH   1  12
TORSDOF 6
