REMARK SMILES CCC(C)n1ncn(-c2ccc(N3CCN(c4ccc(OC[C@H]5CO[C@](Cn6cncn6)(c6ccc(Cl)cc6Cl)O5)cc4)CC3)cc2)c1=O
REMARK SMILES IDX 17 1 18 2 19 3 20 4 42 5 43 6 16 7 13 8 14 9 45 10 15 11
REMARK SMILES IDX 44 12 12 13 9 14 10 15 47 16 11 17 46 18 8 19 5 20 6 21
REMARK SMILES IDX 48 22 7 23 49 24 3 25 4 26 2 27 1 28 21 29 22 30 23 31 24 32
REMARK SMILES IDX 41 33 25 34 26 35 27 36 28 37 29 38 32 39 30 40 31 41 33 42
REMARK SMILES IDX 39 43 34 44 40 45 38 46 35 47 36 48 37 49
REMARK H PARENT
REMARK Flexibility Score: inf
ROOT
ATOM      1  C   UNL     1      -0.606  -0.301  -0.323  1.00  0.00     0.037 A 
ATOM      2  C   UNL     1      -0.893  -0.055   1.029  1.00  0.00     0.030 A 
ATOM      3  C   UNL     1      -2.214   0.063   1.457  1.00  0.00     0.048 A 
ATOM      4  C   UNL     1      -3.273  -0.060   0.550  1.00  0.00     0.119 A 
ATOM      5  C   UNL     1      -2.992  -0.283  -0.811  1.00  0.00     0.048 A 
ATOM      6  C   UNL     1      -1.666  -0.405  -1.240  1.00  0.00     0.030 A 
ENDROOT
BRANCH   1   7
ATOM      7  N   UNL     1       0.758  -0.459  -0.757  1.00  0.00    -0.368 N 
ATOM      8  N   UNL     1       3.480   0.038  -0.958  1.00  0.00    -0.368 N 
ATOM      9  C   UNL     1       2.561   0.892  -1.728  1.00  0.00     0.138 C 
ATOM     10  C   UNL     1       2.967  -0.601   0.263  1.00  0.00     0.138 C 
ATOM     11  C   UNL     1       1.242   0.161  -1.993  1.00  0.00     0.138 C 
ATOM     12  C   UNL     1       1.676  -1.351  -0.043  1.00  0.00     0.138 C 
BRANCH   8  13
ATOM     13  C   UNL     1       4.906   0.175  -1.130  1.00  0.00     0.037 A 
ATOM     14  C   UNL     1       7.707   0.449  -1.325  1.00  0.00     0.052 A 
ATOM     15  C   UNL     1       7.127  -0.818  -1.149  1.00  0.00     0.029 A 
ATOM     16  C   UNL     1       6.874   1.572  -1.444  1.00  0.00     0.029 A 
ATOM     17  C   UNL     1       5.738  -0.954  -1.060  1.00  0.00     0.028 A 
ATOM     18  C   UNL     1       5.487   1.437  -1.339  1.00  0.00     0.028 A 
BRANCH  14  19
ATOM     19  N   UNL     1       9.138   0.604  -1.351  1.00  0.00    -0.250 N 
ATOM     20  N   UNL     1      11.296   0.476  -0.832  1.00  0.00    -0.210 N 
ATOM     21  N   UNL     1      11.175   1.424  -1.748  1.00  0.00    -0.158 NA
ATOM     22  C   UNL     1      10.064  -0.007  -0.586  1.00  0.00     0.350 A 
ATOM     23  C   UNL     1       9.862   1.495  -2.058  1.00  0.00     0.231 A 
ATOM     24  O   UNL     1       9.802  -0.876   0.293  1.00  0.00    -0.246 OA
BRANCH  20  25
ATOM     25  C   UNL     1      12.556   0.161  -0.146  1.00  0.00     0.110 C 
ATOM     26  C   UNL     1      12.870  -1.338  -0.257  1.00  0.00     0.033 C 
BRANCH  25  27
ATOM     27  C   UNL     1      12.495   0.643   1.318  1.00  0.00     0.024 C 
ATOM     28  C   UNL     1      13.863   0.640   2.003  1.00  0.00     0.006 C 
ENDBRANCH  25  27
ENDBRANCH  20  25
ENDBRANCH  14  19
ENDBRANCH   8  13
ENDBRANCH   1   7
BRANCH   4  29
ATOM     29  O   UNL     1      -4.581   0.036   1.044  1.00  0.00    -0.491 OA
BRANCH  29  30
ATOM     30  C   UNL     1      -5.759  -0.102   0.252  1.00  0.00     0.264 C 
BRANCH  30  31
ATOM     31  C   UNL     1      -6.998   0.065   1.136  1.00  0.00     0.185 C 
ATOM     32  C   UNL     1      -7.096   1.437   1.742  1.00  0.00     0.200 C 
ATOM     33  O   UNL     1      -8.153  -0.093   0.376  1.00  0.00    -0.335 OA
ATOM     34  O   UNL     1      -8.452   1.743   1.770  1.00  0.00    -0.341 OA
ATOM     35  C   UNL     1      -9.082   0.856   0.861  1.00  0.00     0.217 C 
BRANCH  35  36
ATOM     36  C   UNL     1      -9.598   1.694  -0.326  1.00  0.00     0.217 C 
BRANCH  36  37
ATOM     37  N   UNL     1     -10.347   0.882  -1.285  1.00  0.00    -0.247 N 
ATOM     38  C   UNL     1      -9.843   0.142  -2.289  1.00  0.00     0.219 A 
ATOM     39  N   UNL     1     -11.660   0.750  -1.283  1.00  0.00    -0.160 NA
ATOM     40  N   UNL     1     -10.821  -0.492  -2.962  1.00  0.00    -0.224 NA
ATOM     41  C   UNL     1     -11.935  -0.087  -2.304  1.00  0.00     0.246 A 
ENDBRANCH  36  37
ENDBRANCH  35  36
BRANCH  35  42
ATOM     42  C   UNL     1     -10.258   0.173   1.572  1.00  0.00     0.032 A 
ATOM     43  C   UNL     1     -10.668  -1.171   1.327  1.00  0.00     0.051 A 
ATOM     44  C   UNL     1     -11.029   0.950   2.464  1.00  0.00     0.012 A 
ATOM     45  Cl  UNL     1      -9.884  -2.248   0.173  1.00  0.00    -0.084 Cl
ATOM     46  C   UNL     1     -11.778  -1.697   2.001  1.00  0.00     0.041 A 
ATOM     47  C   UNL     1     -12.130   0.408   3.129  1.00  0.00     0.021 A 
ATOM     48  C   UNL     1     -12.501  -0.916   2.905  1.00  0.00     0.042 A 
ATOM     49  Cl  UNL     1     -13.889  -1.593   3.741  1.00  0.00    -0.084 Cl
ENDBRANCH  35  42
ENDBRANCH  30  31
ENDBRANCH  29  30
ENDBRANCH   4  29
TORSDOF 11
