REMARK SMILES CC(=O)c1ccc2c(c1)N(CCCN(C)C)c1ccccc1S2
REMARK SMILES IDX 12 1 13 2 14 3 15 4 16 5 11 6 10 7 17 8 8 9 18 10 22 11 7 12
REMARK SMILES IDX 9 13 19 14 21 15 23 16 6 17 4 18 20 19 5 20 2 21 1 22 3 23
REMARK H PARENT
REMARK Flexibility Score: inf
ROOT
ATOM      1  C   UNL     1       2.028  -0.125  -0.270  1.00  0.00     0.037 C 
ENDROOT
BRANCH   1   2
ATOM      2  C   UNL     1       3.162  -0.985   0.304  1.00  0.00     0.085 C 
BRANCH   2   3
ATOM      3  N   UNL     1       4.411  -0.782  -0.464  1.00  0.00    -0.309 NA
ATOM      4  C   UNL     1       4.428  -1.614  -1.680  1.00  0.00     0.104 C 
ATOM      5  C   UNL     1       5.579  -1.113   0.369  1.00  0.00     0.104 C 
ENDBRANCH   2   3
ENDBRANCH   1   2
BRANCH   1   6
ATOM      6  C   UNL     1       0.768  -0.215   0.602  1.00  0.00     0.124 C 
BRANCH   6   7
ATOM      7  N   UNL     1      -0.344   0.539  -0.001  1.00  0.00    -0.340 N 
ATOM      8  C   UNL     1      -0.221   1.941  -0.329  1.00  0.00     0.055 A 
ATOM      9  C   UNL     1      -1.631  -0.079  -0.222  1.00  0.00     0.056 A 
ATOM     10  C   UNL     1       0.434   2.839   0.532  1.00  0.00     0.027 A 
ATOM     11  C   UNL     1      -0.897   2.442  -1.458  1.00  0.00     0.036 A 
ATOM     12  C   UNL     1      -2.387   0.297  -1.345  1.00  0.00     0.036 A 
ATOM     13  C   UNL     1      -2.210  -0.913   0.749  1.00  0.00     0.039 A 
ATOM     14  C   UNL     1       0.405   4.212   0.271  1.00  0.00     0.002 A 
ATOM     15  C   UNL     1      -0.945   3.819  -1.701  1.00  0.00     0.017 A 
ATOM     16  S   UNL     1      -1.622   1.291  -2.630  1.00  0.00    -0.086 SA
ATOM     17  C   UNL     1      -3.705  -0.140  -1.486  1.00  0.00     0.018 A 
ATOM     18  C   UNL     1      -3.531  -1.382   0.603  1.00  0.00     0.019 A 
ATOM     19  C   UNL     1      -0.291   4.702  -0.837  1.00  0.00     0.001 A 
ATOM     20  C   UNL     1      -4.272  -0.979  -0.525  1.00  0.00     0.013 A 
BRANCH  18  21
ATOM     21  C   UNL     1      -4.125  -2.269   1.641  1.00  0.00     0.159 C 
ATOM     22  C   UNL     1      -5.534  -2.771   1.543  1.00  0.00     0.093 C 
ATOM     23  O   UNL     1      -3.433  -2.619   2.636  1.00  0.00    -0.295 OA
ENDBRANCH  18  21
ENDBRANCH   6   7
ENDBRANCH   1   6
TORSDOF 5
