REMARK SMILES CC(C)CC(N(C)C)C1(c2ccc(Cl)cc2)CCC1
REMARK SMILES IDX 5 1 4 2 2 3 1 4 3 5 6 6 7 7 8 8 9 9 17 10 19 11 18 12 10 13
REMARK SMILES IDX 11 14 16 15 12 16 15 17 13 18 14 19
REMARK H PARENT
REMARK Flexibility Score: inf
ROOT
ATOM      1  C   UNL     1      -0.439   0.346   0.135  1.00  0.00     0.066 C 
ENDROOT
BRANCH   1   2
ATOM      2  C   UNL     1      -1.906  -0.212   0.266  1.00  0.00     0.023 C 
BRANCH   2   3
ATOM      3  C   UNL     1      -2.688  -0.529  -1.035  1.00  0.00    -0.016 C 
ATOM      4  C   UNL     1      -4.069  -1.097  -0.677  1.00  0.00     0.007 C 
ATOM      5  C   UNL     1      -2.863   0.708  -1.932  1.00  0.00     0.007 C 
ENDBRANCH   2   3
ENDBRANCH   1   2
BRANCH   1   6
ATOM      6  N   UNL     1      -0.016   1.049   1.383  1.00  0.00    -0.306 NA
ATOM      7  C   UNL     1      -0.515   2.431   1.474  1.00  0.00     0.105 C 
ATOM      8  C   UNL     1      -0.276   0.307   2.630  1.00  0.00     0.105 C 
ENDBRANCH   1   6
BRANCH   1   9
ATOM      9  C   UNL     1       0.718  -0.637  -0.323  1.00  0.00     0.011 C 
ATOM     10  C   UNL     1       0.611  -1.111  -1.791  1.00  0.00     0.013 C 
ATOM     11  C   UNL     1       0.606  -2.118   0.115  1.00  0.00     0.013 C 
ATOM     12  C   UNL     1       0.438  -2.551  -1.333  1.00  0.00     0.002 C 
BRANCH   9  13
ATOM     13  C   UNL     1       2.095  -0.009  -0.059  1.00  0.00    -0.040 A 
ATOM     14  C   UNL     1       2.584   0.996  -0.919  1.00  0.00     0.006 A 
ATOM     15  C   UNL     1       2.818  -0.289   1.120  1.00  0.00     0.006 A 
ATOM     16  C   UNL     1       3.797   1.637  -0.653  1.00  0.00     0.021 A 
ATOM     17  C   UNL     1       4.031   0.356   1.383  1.00  0.00     0.021 A 
ATOM     18  C   UNL     1       4.525   1.312   0.493  1.00  0.00     0.041 A 
ATOM     19  Cl  UNL     1       6.043   2.124   0.829  1.00  0.00    -0.084 Cl
ENDBRANCH   9  13
ENDBRANCH   1   9
TORSDOF 5
