REMARK SMILES CC(CN1c2ccccc2Sc2ccccc21)N(C)C
REMARK SMILES IDX 1 1 2 2 3 3 4 4 5 5 17 6 6 7 10 8 12 9 16 10 7 11 9 12 11 13
REMARK SMILES IDX 13 14 15 15 8 16 14 17 18 18 19 19 20 20
REMARK H PARENT
REMARK Flexibility Score: inf
ROOT
ATOM      1  C   UNL     1       3.404   0.698  -0.661  1.00  0.00     0.026 C 
ATOM      2  C   UNL     1       1.940   0.668  -0.179  1.00  0.00     0.072 C 
ENDROOT
BRANCH   2   3
ATOM      3  C   UNL     1       1.003   0.206  -1.313  1.00  0.00     0.141 C 
BRANCH   3   4
ATOM      4  N   UNL     1      -0.380   0.079  -0.827  1.00  0.00    -0.338 N 
ATOM      5  C   UNL     1      -1.099   1.222  -0.316  1.00  0.00     0.055 A 
ATOM      6  C   UNL     1      -1.011  -1.213  -0.717  1.00  0.00     0.055 A 
ATOM      7  C   UNL     1      -1.135   2.434  -1.025  1.00  0.00     0.027 A 
ATOM      8  C   UNL     1      -1.888   1.078   0.842  1.00  0.00     0.036 A 
ATOM      9  C   UNL     1      -1.792  -1.506   0.417  1.00  0.00     0.036 A 
ATOM     10  C   UNL     1      -0.995  -2.118  -1.791  1.00  0.00     0.027 A 
ATOM     11  C   UNL     1      -1.957   3.479  -0.590  1.00  0.00     0.002 A 
ATOM     12  C   UNL     1      -2.726   2.117   1.259  1.00  0.00     0.017 A 
ATOM     13  S   UNL     1      -1.730  -0.409   1.837  1.00  0.00    -0.086 SA
ATOM     14  C   UNL     1      -2.557  -2.675   0.465  1.00  0.00     0.017 A 
ATOM     15  C   UNL     1      -1.743  -3.298  -1.729  1.00  0.00     0.002 A 
ATOM     16  C   UNL     1      -2.758   3.317   0.544  1.00  0.00     0.001 A 
ATOM     17  C   UNL     1      -2.529  -3.572  -0.606  1.00  0.00     0.001 A 
ENDBRANCH   3   4
ENDBRANCH   2   3
BRANCH   2  18
ATOM     18  N   UNL     1       1.725  -0.152   1.045  1.00  0.00    -0.305 NA
ATOM     19  C   UNL     1       2.116   0.562   2.270  1.00  0.00     0.105 C 
ATOM     20  C   UNL     1       2.343  -1.489   1.004  1.00  0.00     0.105 C 
ENDBRANCH   2  18
TORSDOF 3
