REMARK SMILES CCC(=O)N(c1ccccc1)C1(C(=O)OC)CCN(CCc2ccccc2)CC1
REMARK SMILES IDX 12 1 17 2 18 3 19 4 28 5 29 6 5 7 3 8 4 9 2 10 1 11 6 12
REMARK SMILES IDX 7 13 11 14 8 15 10 16 9 17 13 18 14 19 15 20 16 21 20 22
REMARK SMILES IDX 21 23 22 24 23 25 27 26 24 27 26 28 25 29
REMARK H PARENT
REMARK Flexibility Score: inf
ROOT
ATOM      1  C   UNL     1      -0.924   0.260  -0.273  1.00  0.00     0.147 C 
ATOM      2  C   UNL     1       0.368   0.841   0.401  1.00  0.00     0.057 C 
ATOM      3  C   UNL     1       1.665   0.322  -0.242  1.00  0.00     0.087 C 
ATOM      4  N   UNL     1       1.792  -1.159  -0.169  1.00  0.00    -0.303 NA
ATOM      5  C   UNL     1       0.492  -1.870  -0.104  1.00  0.00     0.087 C 
ATOM      6  C   UNL     1      -0.585  -1.135  -0.909  1.00  0.00     0.057 C 
ENDROOT
BRANCH   1   7
ATOM      7  N   UNL     1      -2.003   0.178   0.763  1.00  0.00    -0.295 N 
BRANCH   7   8
ATOM      8  C   UNL     1      -2.264   1.260   1.690  1.00  0.00     0.227 C 
ATOM      9  O   UNL     1      -2.476   0.995   2.907  1.00  0.00    -0.275 OA
BRANCH   8  10
ATOM     10  C   UNL     1      -2.417   2.689   1.248  1.00  0.00     0.097 C 
ATOM     11  C   UNL     1      -3.873   2.982   0.899  1.00  0.00     0.014 C 
ENDBRANCH   8  10
ENDBRANCH   7   8
BRANCH   7  12
ATOM     12  C   UNL     1      -2.778  -1.020   0.969  1.00  0.00     0.045 A 
ATOM     13  C   UNL     1      -3.900  -1.284   0.170  1.00  0.00     0.026 A 
ATOM     14  C   UNL     1      -2.434  -1.916   1.994  1.00  0.00     0.026 A 
ATOM     15  C   UNL     1      -4.652  -2.446   0.374  1.00  0.00     0.002 A 
ATOM     16  C   UNL     1      -3.186  -3.077   2.196  1.00  0.00     0.002 A 
ATOM     17  C   UNL     1      -4.292  -3.344   1.383  1.00  0.00     0.000 A 
ENDBRANCH   7  12
ENDBRANCH   1   7
BRANCH   1  18
ATOM     18  C   UNL     1      -1.392   1.147  -1.413  1.00  0.00     0.332 C 
ATOM     19  O   UNL     1      -0.561   1.831  -2.074  1.00  0.00    -0.249 OA
BRANCH  18  20
ATOM     20  O   UNL     1      -2.740   1.145  -1.779  1.00  0.00    -0.467 OA
ATOM     21  C   UNL     1      -3.251   1.942  -2.839  1.00  0.00     0.282 C 
ENDBRANCH  18  20
ENDBRANCH   1  18
BRANCH   4  22
ATOM     22  C   UNL     1       2.713  -1.608   0.901  1.00  0.00     0.089 C 
BRANCH  22  23
ATOM     23  C   UNL     1       4.109  -1.889   0.330  1.00  0.00     0.051 C 
BRANCH  23  24
ATOM     24  C   UNL     1       4.797  -0.635  -0.143  1.00  0.00    -0.047 A 
ATOM     25  C   UNL     1       4.775  -0.281  -1.503  1.00  0.00     0.004 A 
ATOM     26  C   UNL     1       5.422   0.218   0.781  1.00  0.00     0.004 A 
ATOM     27  C   UNL     1       5.378   0.906  -1.930  1.00  0.00     0.000 A 
ATOM     28  C   UNL     1       6.025   1.404   0.350  1.00  0.00     0.000 A 
ATOM     29  C   UNL     1       6.004   1.747  -1.004  1.00  0.00     0.000 A 
ENDBRANCH  23  24
ENDBRANCH  22  23
ENDBRANCH   4  22
TORSDOF 9
