REMARK SMILES Cc1nnc(SCC2=C(C(=O)O)N3C(=O)[C@@H](NC(=O)Cn4cnnn4)[C@H]3SC2)s1
REMARK SMILES IDX 26 1 27 2 28 3 8 4 9 5 13 6 14 7 15 8 16 9 17 10 18 11 19 13
REMARK SMILES IDX 20 14 21 15 22 16 25 17 23 18 24 19 10 20 11 21 12 22 7 24
REMARK SMILES IDX 6 25 5 26 4 27 29 28 3 29 2 30 1 31
REMARK H PARENT 17 12 12 23
REMARK Flexibility Score: inf
ROOT
ATOM      1  C   UNL     1      -1.756  -1.501  -0.138  1.00  0.00     0.181 C 
ATOM      2  S   UNL     1      -1.391  -0.493  -1.615  1.00  0.00    -0.129 SA
ATOM      3  C   UNL     1       0.299  -1.197  -1.755  1.00  0.00     0.106 C 
ATOM      4  C   UNL     1       1.177  -0.900  -0.545  1.00  0.00    -0.019 C 
ATOM      5  C   UNL     1       0.669  -1.013   0.713  1.00  0.00     0.132 C 
ATOM      6  N   UNL     1      -0.741  -1.219   0.846  1.00  0.00    -0.289 N 
ATOM      7  C   UNL     1      -1.816  -0.886   1.812  1.00  0.00     0.253 C 
ATOM      8  O   UNL     1      -1.863  -0.537   3.020  1.00  0.00    -0.272 OA
ATOM      9  C   UNL     1      -2.837  -1.096   0.734  1.00  0.00     0.205 C 
ENDROOT
BRANCH   9  10
ATOM     10  N   UNL     1      -3.490   0.159   0.353  1.00  0.00    -0.340 N 
ATOM     11  C   UNL     1      -4.579   0.186  -0.580  1.00  0.00     0.242 C 
ATOM     12  H   UNL     1      -3.181   1.058   0.789  1.00  0.00     0.164 HD
ATOM     13  O   UNL     1      -5.007  -0.885  -1.089  1.00  0.00    -0.273 OA
BRANCH  11  14
ATOM     14  C   UNL     1      -5.240   1.484  -0.924  1.00  0.00     0.247 C 
BRANCH  14  15
ATOM     15  N   UNL     1      -6.189   1.847   0.121  1.00  0.00    -0.223 N 
ATOM     16  C   UNL     1      -5.954   2.555   1.236  1.00  0.00     0.246 A 
ATOM     17  N   UNL     1      -7.445   1.446   0.182  1.00  0.00    -0.045 NA
ATOM     18  N   UNL     1      -7.074   2.606   1.981  1.00  0.00    -0.117 NA
ATOM     19  N   UNL     1      -7.979   1.912   1.302  1.00  0.00    -0.024 NA
ENDBRANCH  14  15
ENDBRANCH  11  14
ENDBRANCH   9  10
BRANCH   5  20
ATOM     20  C   UNL     1       1.479  -0.835   1.943  1.00  0.00     0.352 C 
ATOM     21  O   UNL     1       2.678  -1.220   1.990  1.00  0.00    -0.245 OA
BRANCH  20  22
ATOM     22  O   UNL     1       0.902  -0.280   3.079  1.00  0.00    -0.477 OA
ATOM     23  H   UNL     1       1.436  -0.167   3.932  1.00  0.00     0.297 HD
ENDBRANCH  20  22
ENDBRANCH   5  20
BRANCH   4  24
ATOM     24  C   UNL     1       2.612  -0.511  -0.814  1.00  0.00     0.111 C 
BRANCH  24  25
ATOM     25  S   UNL     1       3.653  -2.006  -0.888  1.00  0.00    -0.089 SA
BRANCH  25  26
ATOM     26  C   UNL     1       5.167  -1.079  -1.103  1.00  0.00     0.174 A 
ATOM     27  N   UNL     1       5.661  -0.721  -2.307  1.00  0.00    -0.132 NA
ATOM     28  S   UNL     1       6.144  -0.537   0.155  1.00  0.00    -0.091 S 
ATOM     29  N   UNL     1       6.797  -0.030  -2.221  1.00  0.00    -0.143 NA
ATOM     30  C   UNL     1       7.216   0.150  -0.949  1.00  0.00     0.115 A 
ATOM     31  C   UNL     1       8.420   0.948  -0.583  1.00  0.00     0.081 C 
ENDBRANCH  25  26
ENDBRANCH  24  25
ENDBRANCH   4  24
TORSDOF 8
