REMARK SMILES C#CCN(C)Cc1ccccc1
REMARK SMILES IDX 5 1 4 2 3 3 2 4 1 5 6 6 7 7 8 8 12 9 9 10 11 11 10 12
REMARK H PARENT
REMARK Flexibility Score: inf
ROOT
ATOM      1  C   UNL     1       0.974  -2.088  -0.012  1.00  0.00     0.106 C 
ATOM      2  N   UNL     1       1.266  -0.673   0.280  1.00  0.00    -0.291 NA
ENDROOT
BRANCH   2   3
ATOM      3  C   UNL     1       2.727  -0.472   0.363  1.00  0.00     0.174 C 
BRANCH   3   4
ATOM      4  C   UNL     1       3.027   0.756   1.110  1.00  0.00    -0.091 C 
ATOM      5  C   UNL     1       3.271   1.765   1.723  1.00  0.00     0.005 C 
ENDBRANCH   3   4
ENDBRANCH   2   3
BRANCH   2   6
ATOM      6  C   UNL     1       0.670   0.201  -0.755  1.00  0.00     0.120 C 
BRANCH   6   7
ATOM      7  C   UNL     1      -0.806   0.371  -0.512  1.00  0.00    -0.034 A 
ATOM      8  C   UNL     1      -1.254   1.089   0.609  1.00  0.00     0.005 A 
ATOM      9  C   UNL     1      -1.747  -0.203  -1.385  1.00  0.00     0.005 A 
ATOM     10  C   UNL     1      -2.624   1.238   0.848  1.00  0.00     0.000 A 
ATOM     11  C   UNL     1      -3.116  -0.052  -1.141  1.00  0.00     0.000 A 
ATOM     12  C   UNL     1      -3.554   0.668  -0.026  1.00  0.00     0.000 A 
ENDBRANCH   6   7
ENDBRANCH   2   6
TORSDOF 4
