REMARK SMILES CCOCCn1c(N2CCCN(C)CC2)nc2ccccc21
REMARK SMILES IDX 8 1 7 2 6 3 22 4 16 5 17 6 21 7 18 8 20 9 19 10 5 11 4 12
REMARK SMILES IDX 3 13 2 14 1 15 9 16 15 18 14 19 12 20 13 21 11 22 10 23
REMARK H PARENT
REMARK Flexibility Score: 80.00
ROOT
ATOM      1  N   UNL     1      -1.291   0.014  -0.137  1.00  0.00    -0.341 N 
ENDROOT
BRANCH   1   2
ATOM      2  C   UNL     1      -0.295   0.948  -0.563  1.00  0.00     0.206 A 
ATOM      3  N   UNL     1       1.026   0.647  -0.650  1.00  0.00    -0.308 N 
ATOM      4  C   UNL     1       1.592   1.798  -1.048  1.00  0.00     0.070 A 
ATOM      5  N   UNL     1      -0.593   2.231  -0.898  1.00  0.00    -0.213 NA
ATOM      6  C   UNL     1       0.615   2.742  -1.201  1.00  0.00     0.091 A 
ATOM      7  C   UNL     1       2.939   2.086  -1.275  1.00  0.00     0.028 A 
ATOM      8  C   UNL     1       0.908   4.044  -1.600  1.00  0.00     0.031 A 
ATOM      9  C   UNL     1       3.267   3.393  -1.681  1.00  0.00     0.002 A 
ATOM     10  C   UNL     1       2.256   4.367  -1.844  1.00  0.00     0.002 A 
BRANCH   3  11
ATOM     11  C   UNL     1       1.690  -0.606  -0.287  1.00  0.00     0.154 C 
BRANCH  11  12
ATOM     12  C   UNL     1       2.227  -0.528   1.144  1.00  0.00     0.182 C 
BRANCH  12  13
ATOM     13  O   UNL     1       2.851  -1.748   1.496  1.00  0.00    -0.380 OA
BRANCH  13  14
ATOM     14  C   UNL     1       4.249  -1.659   1.314  1.00  0.00     0.157 C 
ATOM     15  C   UNL     1       4.872  -3.027   1.546  1.00  0.00     0.035 C 
ENDBRANCH  13  14
ENDBRANCH  12  13
ENDBRANCH  11  12
ENDBRANCH   3  11
ENDBRANCH   1   2
BRANCH   1  16
ATOM     16  C   UNL     1      -1.667  -0.010   1.280  1.00  0.00     0.121 CG0
ATOM     17  G   UNL     1      -3.072   0.562   1.483  1.00  0.00     0.000 G0
ENDBRANCH   1  16
BRANCH   1  18
ATOM     18  C   UNL     1      -1.927  -0.816  -1.170  1.00  0.00     0.135 C 
BRANCH  18  19
ATOM     19  C   UNL     1      -3.104  -1.659  -0.666  1.00  0.00     0.105 C 
BRANCH  19  20
ATOM     20  N   UNL     1      -4.232  -0.787  -0.262  1.00  0.00    -0.305 NA
ATOM     21  C   UNL     1      -5.515  -1.444  -0.565  1.00  0.00     0.105 C 
BRANCH  20  22
ATOM     22  C   UNL     1      -4.175  -0.456   1.177  1.00  0.00     0.086 C 
BRANCH  22  23
ATOM     23  C   UNL     1      -3.072   0.562   1.483  1.00  0.00     0.037 CG0
ATOM     24  G   UNL     1      -1.667  -0.010   1.280  1.00  0.00     0.000 G0
ENDBRANCH  22  23
ENDBRANCH  20  22
ENDBRANCH  19  20
ENDBRANCH  18  19
ENDBRANCH   1  18
TORSDOF 5
