REMARK SMILES C[C@@H]1CN(c2c(F)c(N)c3c(=O)c(C(=O)O)cn(C4CC4)c3c2F)C[C@H](C)N1
REMARK SMILES IDX 5 1 6 2 7 3 8 4 10 5 11 6 12 7 13 8 17 9 18 10 22 11 23 12
REMARK SMILES IDX 24 13 4 14 27 15 26 16 25 17 28 18 2 19 3 21 1 22 9 23 19 26
REMARK SMILES IDX 20 27 21 28 14 29 15 30 16 31
REMARK H PARENT 28 20 9 24 9 25 16 32
REMARK Flexibility Score: inf
ROOT
ATOM      1  C   UNL     1      -0.683   0.140   0.288  1.00  0.00     0.114 A 
ATOM      2  C   UNL     1      -0.641   1.462   0.723  1.00  0.00     0.173 A 
ATOM      3  F   UNL     1      -1.803   2.150   0.867  1.00  0.00    -0.202 F 
ATOM      4  C   UNL     1       0.572   2.067   1.069  1.00  0.00     0.084 A 
ATOM      5  C   UNL     1       1.798   1.361   0.880  1.00  0.00     0.076 A 
ATOM      6  C   UNL     1       3.062   1.958   1.119  1.00  0.00     0.206 A 
ATOM      7  O   UNL     1       3.154   3.189   1.375  1.00  0.00    -0.288 OA
ATOM      8  C   UNL     1       4.236   1.190   1.040  1.00  0.00     0.124 A 
ATOM      9  C   UNL     1       4.140  -0.131   0.601  1.00  0.00     0.106 A 
ATOM     10  N   UNL     1       2.951  -0.671   0.203  1.00  0.00    -0.341 N 
ATOM     11  C   UNL     1       1.765   0.011   0.412  1.00  0.00     0.093 A 
ATOM     12  C   UNL     1       0.501  -0.596   0.178  1.00  0.00     0.174 A 
ATOM     13  F   UNL     1       0.386  -1.922  -0.087  1.00  0.00    -0.202 F 
ENDROOT
BRANCH   1  14
ATOM     14  N   UNL     1      -1.951  -0.473  -0.002  1.00  0.00    -0.364 N 
ATOM     15  C   UNL     1      -3.951   0.466  -2.244  1.00  0.00     0.026 C 
ATOM     16  C   UNL     1      -3.648  -0.943  -1.714  1.00  0.00     0.070 C 
ATOM     17  C   UNL     1      -2.178  -1.100  -1.302  1.00  0.00     0.135 C 
ATOM     18  N   UNL     1      -4.580  -1.343  -0.637  1.00  0.00    -0.308 NA
ATOM     19  C   UNL     1      -4.297  -0.800   0.711  1.00  0.00     0.070 C 
ATOM     20  H   UNL     1      -4.554  -2.388  -0.569  1.00  0.00     0.123 HD
ATOM     21  C   UNL     1      -2.810  -0.896   1.102  1.00  0.00     0.135 C 
ATOM     22  C   UNL     1      -4.860   0.616   0.881  1.00  0.00     0.026 C 
ENDBRANCH   1  14
BRANCH   4  23
ATOM     23  N   UNL     1       0.520   3.370   1.669  1.00  0.00    -0.396 N 
ATOM     24  H   UNL     1      -0.288   4.006   1.488  1.00  0.00     0.156 HD
ATOM     25  H   UNL     1       1.129   3.615   2.479  1.00  0.00     0.156 HD
ENDBRANCH   4  23
BRANCH  10  26
ATOM     26  C   UNL     1       3.001  -2.021  -0.394  1.00  0.00     0.087 C 
ATOM     27  C   UNL     1       2.554  -2.076  -1.853  1.00  0.00     0.027 C 
ATOM     28  C   UNL     1       4.024  -2.198  -1.517  1.00  0.00     0.027 C 
ENDBRANCH  10  26
BRANCH   8  29
ATOM     29  C   UNL     1       5.575   1.746   1.381  1.00  0.00     0.341 C 
ATOM     30  O   UNL     1       5.690   2.892   1.892  1.00  0.00    -0.246 OA
BRANCH  29  31
ATOM     31  O   UNL     1       6.725   0.995   1.145  1.00  0.00    -0.477 OA
ATOM     32  H   UNL     1       7.641   1.360   1.375  1.00  0.00     0.297 HD
ENDBRANCH  29  31
ENDBRANCH   8  29
TORSDOF 5
