REMARK SMILES COC(=O)[C@@H]1[C@H]2C[C@H]3c4[nH]c5ccccc5c4CCN3C[C@@H]2CC[C@@H]1O
REMARK SMILES IDX 22 1 23 2 24 3 25 4 5 5 6 6 7 7 8 8 20 9 19 10 18 11 17 12
REMARK SMILES IDX 9 13 10 14 11 15 12 16 13 17 14 18 15 19 16 20 21 21 3 23
REMARK SMILES IDX 4 24 2 25 1 26 26 27
REMARK H PARENT 10 22 26 28
REMARK Flexibility Score: inf
ROOT
ATOM      1  C   UNL     1      -1.819  -1.747  -0.078  1.00  0.00     0.007 C 
ATOM      2  C   UNL     1      -3.173  -2.320  -0.530  1.00  0.00     0.008 C 
ATOM      3  C   UNL     1      -4.320  -1.689   0.270  1.00  0.00     0.033 C 
ATOM      4  C   UNL     1      -4.321  -0.155   0.142  1.00  0.00     0.129 C 
ATOM      5  C   UNL     1      -2.952   0.432   0.567  1.00  0.00     0.131 C 
ATOM      6  C   UNL     1      -1.795  -0.209  -0.248  1.00  0.00     0.012 C 
ATOM      7  C   UNL     1      -0.414   0.332   0.175  1.00  0.00     0.030 C 
ATOM      8  C   UNL     1       0.696  -0.380  -0.619  1.00  0.00     0.104 C 
ATOM      9  N   UNL     1       0.625  -1.846  -0.371  1.00  0.00    -0.294 NA
ATOM     10  C   UNL     1       1.763  -2.559  -0.999  1.00  0.00     0.090 C 
ATOM     11  C   UNL     1       3.085  -2.184  -0.302  1.00  0.00     0.053 C 
ATOM     12  C   UNL     1       3.157  -0.699  -0.146  1.00  0.00    -0.016 A 
ATOM     13  C   UNL     1       2.058   0.135  -0.232  1.00  0.00     0.037 A 
ATOM     14  N   UNL     1       2.426   1.433  -0.110  1.00  0.00    -0.357 N 
ATOM     15  C   UNL     1       3.758   1.407   0.096  1.00  0.00     0.046 A 
ATOM     16  C   UNL     1       4.606   2.500   0.274  1.00  0.00     0.026 A 
ATOM     17  C   UNL     1       5.978   2.244   0.458  1.00  0.00     0.002 A 
ATOM     18  C   UNL     1       6.467   0.919   0.463  1.00  0.00     0.001 A 
ATOM     19  C   UNL     1       5.590  -0.165   0.273  1.00  0.00     0.010 A 
ATOM     20  C   UNL     1       4.238   0.119   0.092  1.00  0.00     0.003 A 
ATOM     21  C   UNL     1      -0.659  -2.388  -0.856  1.00  0.00     0.089 C 
ATOM     22  H   UNL     1       1.820   2.279  -0.196  1.00  0.00     0.166 HD
ENDROOT
BRANCH   5  23
ATOM     23  C   UNL     1      -2.981   1.934   0.446  1.00  0.00     0.311 C 
ATOM     24  O   UNL     1      -2.862   2.485  -0.685  1.00  0.00    -0.252 OA
BRANCH  23  25
ATOM     25  O   UNL     1      -3.184   2.707   1.593  1.00  0.00    -0.469 OA
ATOM     26  C   UNL     1      -3.322   4.121   1.546  1.00  0.00     0.282 C 
ENDBRANCH  23  25
ENDBRANCH   5  23
BRANCH   4  27
ATOM     27  O   UNL     1      -4.619   0.219  -1.181  1.00  0.00    -0.392 OA
ATOM     28  H   UNL     1      -5.584   0.034  -1.323  1.00  0.00     0.210 HD
ENDBRANCH   4  27
TORSDOF 3
