REMARK SMILES CC(=O)O[C@@]12CO[C@@H]1C[C@H](O)[C@@]1(C)C(=O)[C@H](O)C3=C(C)[C@@H](OC(=O)[C@H](O)[C@@H](NC(=O)OC(C)(C)C)c4ccccc4)C[C@@](O)([C@@H](OC(=O)c4ccccc4)[C@H]21)C3(C)C
REMARK SMILES IDX 23 1 24 2 22 3 21 4 42 5 19 6 43 7 18 8 20 9 56 10 57 11
REMARK SMILES IDX 58 12 44 13 45 15 46 16 47 17 48 18 49 19 50 20 54 21 51 22
REMARK SMILES IDX 53 23 52 24 55 25 5 26 12 27 6 28 8 29 10 30 13 31 7 32 9 33
REMARK SMILES IDX 4 34 2 35 1 36 3 37 14 38 15 39 11 41 16 43 17 45 25 47
REMARK SMILES IDX 26 48 27 50 28 51 29 52 30 54 31 55 32 56 33 57 34 58 35 59
REMARK SMILES IDX 36 60 37 61 41 62 38 63 40 64 39 65
REMARK H PARENT 44 14 11 42 17 46 26 49 28 53
REMARK Flexibility Score: 90.00
ROOT
ATOM      1  C   UNL     1       2.472  -0.591   0.707  1.00  0.00     0.338 C 
ATOM      2  O   UNL     1       3.341   0.298   0.937  1.00  0.00    -0.249 OA
ENDROOT
BRANCH   1   3
ATOM      3  O   UNL     1       1.119  -0.251   0.583  1.00  0.00    -0.456 OA
BRANCH   3   4
ATOM      4  C   UNL     1       0.619   1.088   0.699  1.00  0.00     0.205 C 
ATOM      5  C   UNL     1      -0.438   1.303  -0.421  1.00  0.00     0.090 C 
ATOM      6  C   UNL     1       0.073   1.345   2.096  1.00  0.00    -0.030 C 
ATOM      7  C   UNL     1      -1.594   2.333  -0.129  1.00  0.00     0.115 C 
ATOM      8  C   UNL     1      -0.946   2.239   2.283  1.00  0.00    -0.023 C 
ATOM      9  C   UNL     1       0.682   0.581   3.257  1.00  0.00     0.043 C 
ATOM     10  C   UNL     1      -1.259   3.226   1.132  1.00  0.00     0.022 C 
ATOM     11  C   UNL     1       0.009   4.129   0.907  1.00  0.00     0.019 C 
ATOM     12  C   UNL     1      -2.389   4.276   1.414  1.00  0.00     0.019 C 
BRANCH   7  13
ATOM     13  O   UNL     1      -1.737   3.178  -1.253  1.00  0.00    -0.385 OA
ATOM     14  H   UNL     1      -0.877   3.625  -1.455  1.00  0.00     0.211 HD
ENDBRANCH   7  13
BRANCH   7  15
ATOM     15  C   UNL     1      -2.987   1.561  -0.003  1.00  0.00     0.218 C 
BRANCH  15  16
ATOM     16  O   UNL     1      -3.376   1.101  -1.310  1.00  0.00    -0.455 OA
BRANCH  16  17
ATOM     17  C   UNL     1      -4.247   1.817  -2.157  1.00  0.00     0.338 C 
ATOM     18  O   UNL     1      -4.698   2.944  -1.805  1.00  0.00    -0.246 OA
BRANCH  17  19
ATOM     19  C   UNL     1      -4.689   1.241  -3.438  1.00  0.00     0.060 A 
ATOM     20  C   UNL     1      -3.844   0.398  -4.178  1.00  0.00     0.015 A 
ATOM     21  C   UNL     1      -5.968   1.547  -3.941  1.00  0.00     0.015 A 
ATOM     22  C   UNL     1      -4.286  -0.160  -5.383  1.00  0.00     0.001 A 
ATOM     23  C   UNL     1      -6.404   0.993  -5.148  1.00  0.00     0.001 A 
ATOM     24  C   UNL     1      -5.562   0.139  -5.868  1.00  0.00     0.000 A 
ENDBRANCH  17  19
ENDBRANCH  16  17
ENDBRANCH  15  16
BRANCH  15  25
ATOM     25  C   UNL     1      -3.137   0.406   1.097  1.00  0.00     0.098 C 
ATOM     26  C   UNL     1      -3.504  -1.042   0.532  1.00  0.00     0.169 C 
ATOM     27  C   UNL     1      -3.965   0.836   2.396  1.00  0.00     0.066 C 
ATOM     28  C   UNL     1      -4.719  -1.190  -0.394  1.00  0.00     0.212 C 
ATOM     29  C   UNL     1      -4.339  -1.988   1.415  1.00  0.00     0.168 C 
ATOM     30  C   UNL     1      -3.994  -0.387   3.362  1.00  0.00     0.131 C 
ATOM     31  C   UNL     1      -5.424   1.261   2.018  1.00  0.00     0.023 C 
ATOM     32  O   UNL     1      -5.411  -2.020   0.504  1.00  0.00    -0.370 OA
ATOM     33  C   UNL     1      -4.818  -1.542   2.800  1.00  0.00     0.069 C 
BRANCH  26  34
ATOM     34  O   UNL     1      -2.332  -1.789   0.148  1.00  0.00    -0.454 OA
BRANCH  34  35
ATOM     35  C   UNL     1      -1.813  -1.994  -1.137  1.00  0.00     0.303 C 
ATOM     36  C   UNL     1      -0.643  -2.898  -1.313  1.00  0.00     0.139 C 
ATOM     37  O   UNL     1      -2.325  -1.453  -2.147  1.00  0.00    -0.253 OA
ENDBRANCH  34  35
ENDBRANCH  26  34
BRANCH  27  38
ATOM     38  C   UNL     1      -3.326   2.001   3.191  1.00  0.00     0.174 CG0
ATOM     39  O   UNL     1      -4.065   2.813   3.740  1.00  0.00    -0.296 OA
ATOM     40  G   UNL     1      -1.840   2.081   3.515  1.00  0.00     0.000 G0
ENDBRANCH  27  38
BRANCH  30  41
ATOM     41  O   UNL     1      -4.435  -0.045   4.656  1.00  0.00    -0.392 OA
ATOM     42  H   UNL     1      -5.418   0.085   4.629  1.00  0.00     0.210 HD
ENDBRANCH  30  41
ENDBRANCH  15  25
ENDBRANCH   7  15
BRANCH   8  43
ATOM     43  C   UNL     1      -1.840   2.081   3.515  1.00  0.00     0.208 CG0
ATOM     44  G   UNL     1      -3.326   2.001   3.191  1.00  0.00     0.000 G0
BRANCH  43  45
ATOM     45  O   UNL     1      -1.532   3.057   4.482  1.00  0.00    -0.381 OA
ATOM     46  H   UNL     1      -1.844   3.933   4.151  1.00  0.00     0.212 HD
ENDBRANCH  43  45
ENDBRANCH   8  43
ENDBRANCH   3   4
ENDBRANCH   1   3
BRANCH   1  47
ATOM     47  C   UNL     1       2.900  -2.023   0.544  1.00  0.00     0.251 C 
BRANCH  47  48
ATOM     48  O   UNL     1       3.865  -2.340   1.511  1.00  0.00    -0.379 OA
ATOM     49  H   UNL     1       3.395  -2.400   2.384  1.00  0.00     0.211 HD
ENDBRANCH  47  48
BRANCH  47  50
ATOM     50  C   UNL     1       3.439  -2.305  -0.889  1.00  0.00     0.156 C 
BRANCH  50  51
ATOM     51  N   UNL     1       4.336  -1.230  -1.341  1.00  0.00    -0.311 N 
ATOM     52  C   UNL     1       5.617  -0.937  -0.768  1.00  0.00     0.408 C 
ATOM     53  H   UNL     1       4.003  -0.615  -2.116  1.00  0.00     0.167 HD
ATOM     54  O   UNL     1       6.123  -1.714   0.086  1.00  0.00    -0.225 OA
BRANCH  52  55
ATOM     55  O   UNL     1       6.288   0.225  -1.179  1.00  0.00    -0.444 OA
BRANCH  55  56
ATOM     56  C   UNL     1       7.460   0.791  -0.572  1.00  0.00     0.106 C 
ATOM     57  C   UNL     1       7.176   1.155   0.899  1.00  0.00     0.056 C 
ATOM     58  C   UNL     1       8.652  -0.179  -0.674  1.00  0.00     0.056 C 
ATOM     59  C   UNL     1       7.802   2.074  -1.349  1.00  0.00     0.056 C 
ENDBRANCH  55  56
ENDBRANCH  52  55
ENDBRANCH  50  51
BRANCH  50  60
ATOM     60  C   UNL     1       4.088  -3.679  -1.085  1.00  0.00    -0.022 A 
ATOM     61  C   UNL     1       3.723  -4.793  -0.296  1.00  0.00     0.006 A 
ATOM     62  C   UNL     1       4.974  -3.894  -2.165  1.00  0.00     0.006 A 
ATOM     63  C   UNL     1       4.284  -6.053  -0.534  1.00  0.00     0.000 A 
ATOM     64  C   UNL     1       5.530  -5.155  -2.398  1.00  0.00     0.000 A 
ATOM     65  C   UNL     1       5.194  -6.230  -1.577  1.00  0.00     0.000 A 
ENDBRANCH  50  60
ENDBRANCH  47  50
ENDBRANCH   1  47
TORSDOF 17
