REMARK SMILES COC(F)(F)C(Cl)Cl
REMARK SMILES IDX 3 1 4 2 5 3 2 4 1 5 6 6 7 7 8 8
REMARK H PARENT
REMARK Flexibility Score: inf
ROOT
ATOM      1  C   UNL     1       0.387   0.200   0.215  1.00  0.00     0.385 C 
ATOM      2  F   UNL     1       0.309   1.541  -0.142  1.00  0.00    -0.173 F 
ATOM      3  F   UNL     1       0.374   0.091   1.599  1.00  0.00    -0.173 F 
ENDROOT
BRANCH   1   4
ATOM      4  O   UNL     1      -0.686  -0.534  -0.347  1.00  0.00    -0.322 OA
ATOM      5  C   UNL     1      -1.925  -0.019   0.091  1.00  0.00     0.202 C 
ENDBRANCH   1   4
BRANCH   1   6
ATOM      6  C   UNL     1       1.706  -0.376  -0.305  1.00  0.00     0.272 C 
ATOM      7  Cl  UNL     1       1.799  -0.250  -2.083  1.00  0.00    -0.096 Cl
ATOM      8  Cl  UNL     1       3.097   0.486   0.405  1.00  0.00    -0.096 Cl
ENDBRANCH   1   6
TORSDOF 2
