REMARK SMILES COc1ccc2c(c1)C(=O)N(CCc1ccc(S(=O)(=O)NC(=O)NC3CCCCC3)cc1)C(=O)C2(C)C
REMARK SMILES IDX 14 1 15 2 16 3 17 4 31 5 32 6 13 7 12 8 11 9 3 10 8 11 4 12
REMARK SMILES IDX 7 13 5 14 6 15 9 16 35 17 10 18 36 19 37 20 33 21 34 22 2 23
REMARK SMILES IDX 1 24 18 25 19 26 20 27 21 28 22 29 23 31 24 32 25 34 26 35
REMARK SMILES IDX 30 36 27 37 29 38 28 39
REMARK H PARENT 21 30 24 33
REMARK Flexibility Score: inf
ROOT
ATOM      1  C   UNL     1      -0.579  -0.500  -0.233  1.00  0.00    -0.046 A 
ATOM      2  C   UNL     1       0.149   0.385  -1.044  1.00  0.00     0.005 A 
ATOM      3  C   UNL     1       1.448   0.063  -1.449  1.00  0.00     0.022 A 
ATOM      4  C   UNL     1       2.030  -1.149  -1.056  1.00  0.00     0.087 A 
ATOM      5  C   UNL     1       1.301  -2.039  -0.254  1.00  0.00     0.022 A 
ATOM      6  C   UNL     1       0.002  -1.718   0.150  1.00  0.00     0.005 A 
ENDROOT
BRANCH   1   7
ATOM      7  C   UNL     1      -1.992  -0.175   0.171  1.00  0.00     0.057 C 
BRANCH   7   8
ATOM      8  C   UNL     1      -2.986  -0.724  -0.856  1.00  0.00     0.134 C 
BRANCH   8   9
ATOM      9  N   UNL     1      -4.367  -0.489  -0.405  1.00  0.00    -0.277 N 
ATOM     10  C   UNL     1      -8.380   2.434  -0.312  1.00  0.00     0.119 A 
ATOM     11  C   UNL     1      -7.062   2.173  -0.691  1.00  0.00     0.060 A 
ATOM     12  C   UNL     1      -9.063   1.493   0.470  1.00  0.00     0.047 A 
ATOM     13  C   UNL     1      -6.413   0.984  -0.304  1.00  0.00     0.048 A 
ATOM     14  C   UNL     1      -8.432   0.313   0.862  1.00  0.00     0.009 A 
ATOM     15  C   UNL     1      -7.099   0.032   0.483  1.00  0.00    -0.020 A 
ATOM     16  C   UNL     1      -5.023   0.744  -0.727  1.00  0.00     0.260 C 
ATOM     17  C   UNL     1      -6.438  -1.271   0.955  1.00  0.00     0.070 C 
ATOM     18  O   UNL     1      -4.405   1.633  -1.377  1.00  0.00    -0.269 OA
ATOM     19  C   UNL     1      -7.262  -2.476   0.448  1.00  0.00     0.027 C 
ATOM     20  C   UNL     1      -6.395  -1.283   2.499  1.00  0.00     0.027 C 
ATOM     21  C   UNL     1      -5.011  -1.449   0.453  1.00  0.00     0.239 C 
ATOM     22  O   UNL     1      -4.375  -2.483   0.806  1.00  0.00    -0.273 OA
BRANCH  10  23
ATOM     23  O   UNL     1      -8.970   3.636  -0.730  1.00  0.00    -0.497 OA
ATOM     24  C   UNL     1     -10.307   4.024  -0.429  1.00  0.00     0.278 C 
ENDBRANCH  10  23
ENDBRANCH   8   9
ENDBRANCH   7   8
ENDBRANCH   1   7
BRANCH   4  25
ATOM     25  S   UNL     1       3.669  -1.536  -1.570  1.00  0.00     0.265 S 
ATOM     26  O   UNL     1       4.038  -2.914  -1.094  1.00  0.00    -0.201 OA
ATOM     27  O   UNL     1       3.745  -1.492  -3.070  1.00  0.00    -0.201 OA
BRANCH  25  28
ATOM     28  N   UNL     1       4.767  -0.379  -0.892  1.00  0.00    -0.231 N 
ATOM     29  C   UNL     1       6.183  -0.588  -0.891  1.00  0.00     0.328 C 
ATOM     30  H   UNL     1       4.376   0.499  -0.483  1.00  0.00     0.185 HD
ATOM     31  O   UNL     1       6.665  -1.645  -1.380  1.00  0.00    -0.248 OA
ATOM     32  N   UNL     1       7.049   0.409  -0.334  1.00  0.00    -0.335 N 
ATOM     33  H   UNL     1       6.624   1.306  -0.006  1.00  0.00     0.165 HD
BRANCH  32  34
ATOM     34  C   UNL     1       8.500   0.218  -0.233  1.00  0.00     0.083 C 
ATOM     35  C   UNL     1       8.826  -0.821   0.869  1.00  0.00     0.025 C 
ATOM     36  C   UNL     1       9.202   1.558   0.047  1.00  0.00     0.025 C 
ATOM     37  C   UNL     1      10.215  -0.624   1.512  1.00  0.00     0.002 C 
ATOM     38  C   UNL     1      10.737   1.405   0.071  1.00  0.00     0.002 C 
ATOM     39  C   UNL     1      11.208   0.011   0.535  1.00  0.00     0.000 C 
ENDBRANCH  32  34
ENDBRANCH  25  28
ENDBRANCH   4  25
TORSDOF 7
