REMARK SMILES Clc1ccc2c(c1)C(c1ccccc1)=NCc1nncn1-2
REMARK SMILES IDX 1 1 2 2 7 3 6 4 5 5 4 6 3 7 21 8 20 9 19 10 18 11 17 12
REMARK SMILES IDX 16 13 15 14 8 15 9 16 10 17 14 18 11 19 13 20 12 21
REMARK H PARENT
REMARK Flexibility Score: inf
ROOT
ATOM      1  Cl  UNL     1       0.636   4.591  -0.639  1.00  0.00    -0.084 Cl
ATOM      2  C   UNL     1       1.103   2.959  -0.197  1.00  0.00     0.041 A 
ATOM      3  C   UNL     1       0.302   1.878  -0.570  1.00  0.00     0.033 A 
ATOM      4  C   UNL     1       0.653   0.559  -0.218  1.00  0.00     0.026 A 
ATOM      5  C   UNL     1       1.862   0.342   0.499  1.00  0.00     0.058 A 
ATOM      6  C   UNL     1       2.649   1.444   0.876  1.00  0.00     0.029 A 
ATOM      7  C   UNL     1       2.271   2.742   0.532  1.00  0.00     0.023 A 
ATOM      8  N   UNL     1       2.324  -0.986   0.804  1.00  0.00    -0.283 N 
ATOM      9  C   UNL     1       3.072  -1.406   1.842  1.00  0.00     0.231 A 
ATOM     10  N   UNL     1       3.375  -2.713   1.721  1.00  0.00    -0.139 NA
ATOM     11  N   UNL     1       2.831  -3.140   0.590  1.00  0.00    -0.133 NA
ATOM     12  C   UNL     1       2.203  -2.083   0.043  1.00  0.00     0.159 A 
ATOM     13  C   UNL     1       1.467  -2.105  -1.251  1.00  0.00     0.220 C 
ATOM     14  N   UNL     1       0.089  -1.698  -1.017  1.00  0.00    -0.276 NA
ATOM     15  C   UNL     1      -0.307  -0.544  -0.553  1.00  0.00     0.075 C 
ENDROOT
BRANCH  15  16
ATOM     16  C   UNL     1      -1.767  -0.338  -0.369  1.00  0.00     0.000 A 
ATOM     17  C   UNL     1      -2.688  -0.959  -1.234  1.00  0.00     0.010 A 
ATOM     18  C   UNL     1      -2.255   0.454   0.688  1.00  0.00     0.010 A 
ATOM     19  C   UNL     1      -4.063  -0.775  -1.056  1.00  0.00     0.001 A 
ATOM     20  C   UNL     1      -3.630   0.635   0.862  1.00  0.00     0.001 A 
ATOM     21  C   UNL     1      -4.533   0.023  -0.010  1.00  0.00     0.000 A 
ENDBRANCH  15  16
TORSDOF 1
