REMARK SMILES C[C@]12CC[C@H]3[C@@H](CC[C@@]45O[C@@H]4C(O)=C(C#N)C[C@]35C)[C@@H]1CC[C@@H]2O
REMARK SMILES IDX 20 1 21 2 22 3 23 4 2 5 1 6 3 7 4 8 5 9 6 10 7 11 8 12 9 13
REMARK SMILES IDX 10 14 11 15 12 16 14 17 17 18 18 19 19 20 24 21 15 23 16 24
REMARK SMILES IDX 13 25
REMARK H PARENT 24 22 13 26
REMARK Flexibility Score: inf
ROOT
ATOM      1  C   UNL     1      -1.905   0.082  -0.899  1.00  0.00     0.001 C 
ATOM      2  C   UNL     1      -2.897   0.924  -1.697  1.00  0.00     0.007 C 
ATOM      3  C   UNL     1      -4.259   0.250  -1.437  1.00  0.00     0.032 C 
ATOM      4  C   UNL     1      -4.018  -0.802  -0.324  1.00  0.00     0.120 C 
ATOM      5  C   UNL     1      -2.698  -0.367   0.346  1.00  0.00    -0.003 C 
ATOM      6  C   UNL     1      -2.980   0.778   1.374  1.00  0.00     0.014 C 
ATOM      7  C   UNL     1      -1.916  -1.507   1.039  1.00  0.00     0.010 C 
ATOM      8  C   UNL     1      -0.472  -1.067   1.399  1.00  0.00     0.005 C 
ATOM      9  C   UNL     1       0.290  -0.491   0.170  1.00  0.00     0.002 C 
ATOM     10  C   UNL     1      -0.519   0.656  -0.528  1.00  0.00    -0.003 C 
ATOM     11  C   UNL     1       0.238   1.315  -1.726  1.00  0.00     0.007 C 
ATOM     12  C   UNL     1       1.564   0.653  -2.143  1.00  0.00     0.040 C 
ATOM     13  C   UNL     1       2.410   0.116  -0.969  1.00  0.00     0.109 C 
ATOM     14  O   UNL     1       3.055  -1.064  -1.418  1.00  0.00    -0.357 OA
ATOM     15  C   UNL     1       3.895   0.010  -1.081  1.00  0.00     0.218 C 
ATOM     16  C   UNL     1       4.663  -0.324   0.176  1.00  0.00     0.138 C 
ATOM     17  C   UNL     1       4.048  -0.847   1.256  1.00  0.00     0.070 C 
ATOM     18  C   UNL     1       2.558  -1.128   1.252  1.00  0.00     0.061 C 
ATOM     19  C   UNL     1       1.768  -0.057   0.438  1.00  0.00     0.008 C 
ATOM     20  C   UNL     1       1.846   1.287   1.215  1.00  0.00     0.015 C 
ENDROOT
BRANCH   4  21
ATOM     21  O   UNL     1      -5.095  -0.937   0.575  1.00  0.00    -0.393 OA
ATOM     22  H   UNL     1      -5.456  -0.037   0.782  1.00  0.00     0.210 HD
ENDBRANCH   4  21
BRANCH  17  23
ATOM     23  C   UNL     1       4.804  -1.144   2.449  1.00  0.00     0.098 C 
ATOM     24  N   UNL     1       5.410  -1.382   3.406  1.00  0.00    -0.193 NA
ENDBRANCH  17  23
BRANCH  16  25
ATOM     25  O   UNL     1       6.035  -0.077   0.208  1.00  0.00    -0.508 OA
ATOM     26  H   UNL     1       6.517   0.317  -0.591  1.00  0.00     0.293 HD
ENDBRANCH  16  25
TORSDOF 3
