REMARK SMILES O=C(O)CCCO
REMARK SMILES IDX 5 1 6 2 7 3 4 5 2 6 1 7 3 8
REMARK H PARENT 7 4 3 9
REMARK Flexibility Score: inf
ROOT
ATOM      1  C   UNL     1      -0.372  -0.245  -0.859  1.00  0.00     0.040 C 
ENDROOT
BRANCH   1   2
ATOM      2  C   UNL     1      -1.868  -0.268  -0.533  1.00  0.00     0.156 C 
BRANCH   2   3
ATOM      3  O   UNL     1      -2.365   1.036  -0.389  1.00  0.00    -0.396 OA
ATOM      4  H   UNL     1      -2.283   1.272   0.572  1.00  0.00     0.210 HD
ENDBRANCH   2   3
ENDBRANCH   1   2
BRANCH   1   5
ATOM      5  C   UNL     1       0.464   0.273   0.317  1.00  0.00     0.125 C 
BRANCH   5   6
ATOM      6  C   UNL     1       1.922   0.216  -0.012  1.00  0.00     0.303 C 
ATOM      7  O   UNL     1       2.482   1.197  -0.571  1.00  0.00    -0.252 OA
BRANCH   6   8
ATOM      8  O   UNL     1       2.648  -0.939   0.259  1.00  0.00    -0.481 OA
ATOM      9  H   UNL     1       3.633  -0.999   0.027  1.00  0.00     0.296 HD
ENDBRANCH   6   8
ENDBRANCH   5   6
ENDBRANCH   1   5
TORSDOF 5
