REMARK SMILES CN1C(=O)NC(=O)C(C)(C2=CCCCC2)C1=O
REMARK SMILES IDX 1 1 2 2 3 3 4 4 5 5 6 6 7 7 8 8 9 9 16 10 17 11 10 13 11 14
REMARK SMILES IDX 15 15 12 16 14 17 13 18
REMARK H PARENT 5 12
REMARK Flexibility Score: inf
ROOT
ATOM      1  C   UNL     1       3.547   1.926  -0.834  1.00  0.00     0.158 C 
ATOM      2  N   UNL     1       2.742   0.900  -0.163  1.00  0.00    -0.266 N 
ATOM      3  C   UNL     1       3.166   0.371   1.103  1.00  0.00     0.330 C 
ATOM      4  O   UNL     1       4.255   0.743   1.620  1.00  0.00    -0.248 OA
ATOM      5  N   UNL     1       2.352  -0.571   1.796  1.00  0.00    -0.276 N 
ATOM      6  C   UNL     1       1.125  -1.049   1.244  1.00  0.00     0.247 C 
ATOM      7  O   UNL     1       0.438  -1.872   1.910  1.00  0.00    -0.273 OA
ATOM      8  C   UNL     1       0.661  -0.640  -0.143  1.00  0.00     0.147 C 
ATOM      9  C   UNL     1       0.933  -1.831  -1.086  1.00  0.00     0.037 C 
ATOM     10  C   UNL     1       1.448   0.545  -0.685  1.00  0.00     0.249 C 
ATOM     11  O   UNL     1       0.977   1.186  -1.667  1.00  0.00    -0.273 OA
ATOM     12  H   UNL     1       2.660  -0.918   2.732  1.00  0.00     0.174 HD
ENDROOT
BRANCH   8  13
ATOM     13  C   UNL     1      -0.832  -0.257  -0.063  1.00  0.00    -0.050 C 
ATOM     14  C   UNL     1      -1.191   0.788   0.727  1.00  0.00    -0.026 C 
ATOM     15  C   UNL     1      -1.903  -1.135  -0.708  1.00  0.00     0.032 C 
ATOM     16  C   UNL     1      -2.612   1.264   0.888  1.00  0.00     0.027 C 
ATOM     17  C   UNL     1      -3.289  -0.480  -0.762  1.00  0.00     0.005 C 
ATOM     18  C   UNL     1      -3.627   0.166   0.577  1.00  0.00     0.004 C 
ENDBRANCH   8  13
TORSDOF 1
