REMARK SMILES CC(C)C[C@H]1C(=O)N2CCC[C@H]2[C@]2(O)O[C@](NC(=O)[C@@H]3C=C4c5cccc6[nH]c(Br)c(c56)C[C@H]4N(C)C3)(C(C)C)C(=O)N12
REMARK SMILES IDX 12 1 11 2 10 3 9 4 8 5 6 6 7 7 5 8 43 9 41 10 42 11 16 12
REMARK SMILES IDX 15 13 13 14 14 15 4 17 2 18 1 19 3 20 17 21 18 22 19 24
REMARK SMILES IDX 20 25 37 26 21 27 35 28 22 29 36 30 34 31 23 32 33 33 24 34
REMARK SMILES IDX 32 35 31 36 25 37 27 38 29 39 26 40 28 41 30 42 38 44 39 45
REMARK SMILES IDX 40 46
REMARK H PARENT 14 16 17 23 28 43
REMARK Flexibility Score: inf
ROOT
ATOM      1  C   UNL     1      -3.195  -1.418  -1.611  1.00  0.00     0.168 C 
ATOM      2  C   UNL     1      -2.702  -1.666  -3.039  1.00  0.00     0.035 C 
ATOM      3  C   UNL     1      -3.966  -1.990  -3.840  1.00  0.00     0.024 C 
ATOM      4  C   UNL     1      -5.123  -1.360  -3.070  1.00  0.00     0.120 C 
ATOM      5  N   UNL     1      -4.602  -1.093  -1.742  1.00  0.00    -0.330 N 
ATOM      6  C   UNL     1      -5.356  -0.469  -0.690  1.00  0.00     0.246 C 
ATOM      7  O   UNL     1      -6.616  -0.471  -0.738  1.00  0.00    -0.272 OA
ATOM      8  C   UNL     1      -4.643   0.186   0.477  1.00  0.00     0.180 C 
ATOM      9  N   UNL     1      -3.194  -0.039   0.373  1.00  0.00    -0.273 N 
ATOM     10  C   UNL     1      -2.334  -0.373   1.419  1.00  0.00     0.281 C 
ATOM     11  O   UNL     1      -2.639  -0.255   2.636  1.00  0.00    -0.269 OA
ATOM     12  C   UNL     1      -1.045  -0.879   0.889  1.00  0.00     0.228 C 
ATOM     13  O   UNL     1      -1.141  -0.709  -0.525  1.00  0.00    -0.294 OA
ATOM     14  C   UNL     1      -2.466  -0.295  -0.857  1.00  0.00     0.276 C 
ENDROOT
BRANCH  14  15
ATOM     15  O   UNL     1      -2.426   0.876  -1.632  1.00  0.00    -0.347 OA
ATOM     16  H   UNL     1      -1.899   1.542  -1.119  1.00  0.00     0.216 HD
ENDBRANCH  14  15
BRANCH   8  17
ATOM     17  C   UNL     1      -4.914   1.703   0.527  1.00  0.00     0.038 C 
BRANCH  17  18
ATOM     18  C   UNL     1      -6.312   2.056   1.111  1.00  0.00    -0.015 C 
ATOM     19  C   UNL     1      -7.191   2.756   0.067  1.00  0.00     0.007 C 
ATOM     20  C   UNL     1      -6.182   2.943   2.357  1.00  0.00     0.007 C 
ENDBRANCH  17  18
ENDBRANCH   8  17
BRANCH  12  21
ATOM     21  N   UNL     1       0.057  -0.060   1.425  1.00  0.00    -0.319 N 
ATOM     22  C   UNL     1       1.266   0.254   0.715  1.00  0.00     0.230 C 
ATOM     23  H   UNL     1      -0.034   0.313   2.398  1.00  0.00     0.166 HD
ATOM     24  O   UNL     1       1.499  -0.267  -0.411  1.00  0.00    -0.274 OA
BRANCH  22  25
ATOM     25  C   UNL     1       2.255   1.220   1.327  1.00  0.00     0.115 C 
ATOM     26  C   UNL     1       3.039   0.601   2.492  1.00  0.00     0.102 C 
ATOM     27  C   UNL     1       3.220   1.767   0.324  1.00  0.00    -0.007 C 
ATOM     28  N   UNL     1       4.060  -0.390   2.069  1.00  0.00    -0.298 NA
ATOM     29  C   UNL     1       4.344   1.102   0.029  1.00  0.00    -0.026 C 
ATOM     30  C   UNL     1       3.641  -1.769   2.382  1.00  0.00     0.106 C 
ATOM     31  C   UNL     1       4.595  -0.278   0.681  1.00  0.00     0.091 C 
ATOM     32  C   UNL     1       5.266   1.575  -1.049  1.00  0.00    -0.011 A 
ATOM     33  C   UNL     1       6.102  -0.699   0.699  1.00  0.00     0.063 C 
ATOM     34  C   UNL     1       5.067   2.671  -1.924  1.00  0.00     0.009 A 
ATOM     35  C   UNL     1       6.421   0.845  -1.238  1.00  0.00     0.011 A 
ATOM     36  C   UNL     1       6.828  -0.228  -0.520  1.00  0.00    -0.005 A 
ATOM     37  C   UNL     1       6.033   2.976  -2.917  1.00  0.00     0.003 A 
ATOM     38  C   UNL     1       7.364   1.126  -2.174  1.00  0.00     0.047 A 
ATOM     39  C   UNL     1       8.070  -0.572  -1.047  1.00  0.00     0.086 A 
ATOM     40  C   UNL     1       7.205   2.199  -3.047  1.00  0.00     0.027 A 
ATOM     41  N   UNL     1       8.392   0.259  -2.074  1.00  0.00    -0.349 N 
ATOM     42  Br  UNL     1       9.216  -1.956  -0.400  1.00  0.00    -0.031 Br
ATOM     43  H   UNL     1       9.270   0.247  -2.645  1.00  0.00     0.167 HD
ENDBRANCH  22  25
ENDBRANCH  12  21
BRANCH  12  44
ATOM     44  C   UNL     1      -0.872  -2.396   1.235  1.00  0.00     0.046 C 
ATOM     45  C   UNL     1      -0.432  -2.630   2.692  1.00  0.00     0.013 C 
ATOM     46  C   UNL     1       0.090  -3.115   0.276  1.00  0.00     0.013 C 
ENDBRANCH  12  44
TORSDOF 6
