REMARK SMILES CCOP(=O)(OCC)SCC[N+](C)(C)C
REMARK SMILES IDX 9 1 4 2 5 3 3 4 2 5 1 6 6 7 7 8 8 9 10 10 11 11 12 12 13 13
REMARK SMILES IDX 14 14 15 15
REMARK H PARENT
REMARK Flexibility Score: inf
ROOT
ATOM      1  S   UNL     1      -0.240   1.372   0.303  1.00  0.00    -0.035 SA
ENDROOT
BRANCH   1   2
ATOM      2  P   UNL     1      -1.677  -0.191   0.392  1.00  0.00     0.389 P 
ATOM      3  O   UNL     1      -1.138  -1.427  -0.296  1.00  0.00    -0.247 OA
BRANCH   2   4
ATOM      4  O   UNL     1      -1.978  -0.544   2.033  1.00  0.00    -0.301 OA
BRANCH   4   5
ATOM      5  C   UNL     1      -3.065  -1.436   2.104  1.00  0.00     0.168 C 
ATOM      6  C   UNL     1      -3.281  -1.841   3.554  1.00  0.00     0.035 C 
ENDBRANCH   4   5
ENDBRANCH   2   4
BRANCH   2   7
ATOM      7  O   UNL     1      -3.122   0.331  -0.356  1.00  0.00    -0.301 OA
BRANCH   7   8
ATOM      8  C   UNL     1      -2.907   0.411  -1.745  1.00  0.00     0.168 C 
ATOM      9  C   UNL     1      -4.147   0.992  -2.407  1.00  0.00     0.035 C 
ENDBRANCH   7   8
ENDBRANCH   2   7
ENDBRANCH   1   2
BRANCH   1  10
ATOM     10  C   UNL     1       1.119   0.427   1.089  1.00  0.00     0.143 C 
BRANCH  10  11
ATOM     11  C   UNL     1       1.976  -0.328   0.042  1.00  0.00     0.274 C 
BRANCH  11  12
ATOM     12  N   UNL     1       3.178   0.405  -0.466  1.00  0.00    -0.330 N 
ATOM     13  C   UNL     1       3.770  -0.392  -1.569  1.00  0.00     0.334 C 
ATOM     14  C   UNL     1       4.206   0.549   0.595  1.00  0.00     0.334 C 
ATOM     15  C   UNL     1       2.821   1.741  -0.999  1.00  0.00     0.334 C 
ENDBRANCH  11  12
ENDBRANCH  10  11
ENDBRANCH   1  10
TORSDOF 8
