REMARK SMILES C[C@H]1[C@H](c2ccccc2)OCCN1C
REMARK SMILES IDX 1 1 2 2 3 3 10 4 11 5 12 6 13 7 14 8 4 9 5 10 9 11 6 12 8 13
REMARK SMILES IDX 7 14
REMARK H PARENT
REMARK Flexibility Score: inf
ROOT
ATOM      1  C   UNL     1       0.555   1.670  -1.043  1.00  0.00     0.028 C 
ATOM      2  C   UNL     1       0.892   0.501  -0.094  1.00  0.00     0.086 C 
ATOM      3  C   UNL     1      -0.065  -0.702  -0.371  1.00  0.00     0.165 C 
ATOM      4  O   UNL     1       0.273  -1.818   0.434  1.00  0.00    -0.371 OA
ATOM      5  C   UNL     1       1.587  -2.241   0.147  1.00  0.00     0.176 C 
ATOM      6  C   UNL     1       2.582  -1.143   0.512  1.00  0.00     0.113 C 
ATOM      7  N   UNL     1       2.305   0.071  -0.278  1.00  0.00    -0.298 NA
ATOM      8  C   UNL     1       3.259   1.125   0.119  1.00  0.00     0.105 C 
ENDROOT
BRANCH   3   9
ATOM      9  C   UNL     1      -1.509  -0.343  -0.081  1.00  0.00    -0.018 A 
ATOM     10  C   UNL     1      -1.938  -0.122   1.241  1.00  0.00     0.006 A 
ATOM     11  C   UNL     1      -2.436  -0.213  -1.131  1.00  0.00     0.006 A 
ATOM     12  C   UNL     1      -3.267   0.221   1.504  1.00  0.00     0.000 A 
ATOM     13  C   UNL     1      -3.764   0.131  -0.862  1.00  0.00     0.000 A 
ATOM     14  C   UNL     1      -4.180   0.347   0.454  1.00  0.00     0.000 A 
ENDBRANCH   3   9
TORSDOF 1
