REMARK SMILES CCOC(=O)c1ccc(N)cc1
REMARK SMILES IDX 4 1 5 2 3 3 2 4 1 5 6 6 7 7 12 8 8 9 11 10 9 11 10 12
REMARK H PARENT 10 13 10 14
REMARK Flexibility Score: inf
ROOT
ATOM      1  C   UNL     1       1.024   0.189  -0.766  1.00  0.00     0.338 C 
ATOM      2  O   UNL     1       1.424  -0.280  -1.868  1.00  0.00    -0.246 OA
ENDROOT
BRANCH   1   3
ATOM      3  O   UNL     1       1.910   0.885   0.065  1.00  0.00    -0.462 OA
BRANCH   3   4
ATOM      4  C   UNL     1       3.295   1.057  -0.229  1.00  0.00     0.230 C 
ATOM      5  C   UNL     1       4.066  -0.230   0.038  1.00  0.00     0.049 C 
ENDBRANCH   3   4
ENDBRANCH   1   3
BRANCH   1   6
ATOM      6  C   UNL     1      -0.386   0.010  -0.353  1.00  0.00     0.060 A 
ATOM      7  C   UNL     1      -0.837   0.529   0.873  1.00  0.00     0.018 A 
ATOM      8  C   UNL     1      -1.294  -0.680  -1.177  1.00  0.00     0.018 A 
ATOM      9  C   UNL     1      -2.168   0.362   1.267  1.00  0.00     0.026 A 
ATOM     10  C   UNL     1      -2.625  -0.846  -0.781  1.00  0.00     0.026 A 
ATOM     11  C   UNL     1      -3.068  -0.326   0.442  1.00  0.00     0.031 A 
BRANCH  11  12
ATOM     12  N   UNL     1      -4.429  -0.497   0.846  1.00  0.00    -0.399 N 
ATOM     13  H   UNL     1      -5.107  -1.008   0.238  1.00  0.00     0.156 HD
ATOM     14  H   UNL     1      -4.769  -0.113   1.756  1.00  0.00     0.156 HD
ENDBRANCH  11  12
ENDBRANCH   1   6
TORSDOF 4
