REMARK SMILES CC(C)NC(=N)NC(=N)Nc1ccc(Cl)cc1
REMARK SMILES IDX 4 1 5 2 6 3 7 4 8 5 9 6 10 7 2 13 1 14 3 15 11 16 12 17
REMARK SMILES IDX 17 18 13 19 16 20 14 21 15 22
REMARK H PARENT 4 8 6 9 7 10 9 11 10 12
REMARK Flexibility Score: inf
ROOT
ATOM      1  N   UNL     1      -2.991   0.255   0.337  1.00  0.00    -0.354 N 
ATOM      2  C   UNL     1      -1.687   0.109  -0.245  1.00  0.00     0.195 C 
ATOM      3  N   UNL     1      -1.563  -0.046  -1.528  1.00  0.00    -0.269 NA
ATOM      4  N   UNL     1      -0.538   0.067   0.618  1.00  0.00    -0.297 N 
ATOM      5  C   UNL     1       0.761   0.567   0.264  1.00  0.00     0.199 C 
ATOM      6  N   UNL     1       0.891   1.393  -0.728  1.00  0.00    -0.269 NA
ATOM      7  N   UNL     1       1.882   0.256   1.108  1.00  0.00    -0.326 N 
ATOM      8  H   UNL     1      -3.049   0.408   1.370  1.00  0.00     0.163 HD
ATOM      9  H   UNL     1      -0.642  -0.208  -1.992  1.00  0.00     0.191 HD
ATOM     10  H   UNL     1      -0.675  -0.288   1.591  1.00  0.00     0.173 HD
ATOM     11  H   UNL     1       1.803   1.837  -0.975  1.00  0.00     0.191 HD
ATOM     12  H   UNL     1       1.691   0.074   2.120  1.00  0.00     0.170 HD
ENDROOT
BRANCH   1  13
ATOM     13  C   UNL     1      -4.227   0.234  -0.454  1.00  0.00     0.075 C 
ATOM     14  C   UNL     1      -4.587  -1.206  -0.829  1.00  0.00     0.030 C 
ATOM     15  C   UNL     1      -5.371   0.884   0.330  1.00  0.00     0.030 C 
ENDBRANCH   1  13
BRANCH   7  16
ATOM     16  C   UNL     1       3.240   0.148   0.648  1.00  0.00     0.041 A 
ATOM     17  C   UNL     1       3.539  -0.268  -0.663  1.00  0.00     0.027 A 
ATOM     18  C   UNL     1       4.293   0.401   1.541  1.00  0.00     0.027 A 
ATOM     19  C   UNL     1       4.868  -0.393  -1.078  1.00  0.00     0.022 A 
ATOM     20  C   UNL     1       5.621   0.277   1.123  1.00  0.00     0.022 A 
ATOM     21  C   UNL     1       5.910  -0.117  -0.187  1.00  0.00     0.041 A 
ATOM     22  Cl  UNL     1       7.577  -0.275  -0.710  1.00  0.00    -0.084 Cl
ENDBRANCH   7  16
TORSDOF 2
