REMARK SMILES CC(C)(C#N)c1cc(Cn2cncn2)cc(C(C)(C)C#N)c1
REMARK SMILES IDX 6 1 22 2 16 3 15 4 8 5 7 6 2 7 1 8 3 9 4 10 5 11 17 12 18 13
REMARK SMILES IDX 19 14 20 15 21 16 9 17 10 18 11 19 14 20 12 21 13 22
REMARK H PARENT
REMARK Flexibility Score: inf
ROOT
ATOM      1  C   UNL     1      -1.158  -0.840   0.225  1.00  0.00    -0.028 A 
ATOM      2  C   UNL     1      -1.264   0.514  -0.164  1.00  0.00     0.010 A 
ATOM      3  C   UNL     1      -0.197   1.194  -0.794  1.00  0.00    -0.028 A 
ATOM      4  C   UNL     1       1.003   0.488  -1.015  1.00  0.00     0.011 A 
ATOM      5  C   UNL     1       1.115  -0.866  -0.679  1.00  0.00    -0.026 A 
ATOM      6  C   UNL     1       0.042  -1.519  -0.064  1.00  0.00     0.011 A 
ENDROOT
BRANCH   1   7
ATOM      7  C   UNL     1      -2.320  -1.606   0.880  1.00  0.00     0.077 C 
ATOM      8  C   UNL     1      -3.447  -0.692   1.406  1.00  0.00     0.032 C 
ATOM      9  C   UNL     1      -2.915  -2.591  -0.142  1.00  0.00     0.032 C 
BRANCH   7  10
ATOM     10  C   UNL     1      -1.811  -2.372   2.038  1.00  0.00     0.073 C 
ATOM     11  N   UNL     1      -1.412  -2.972   2.945  1.00  0.00    -0.197 NA
ENDBRANCH   7  10
ENDBRANCH   1   7
BRANCH   3  12
ATOM     12  C   UNL     1      -0.349   2.686  -1.136  1.00  0.00     0.077 C 
ATOM     13  C   UNL     1       0.763   3.226  -2.062  1.00  0.00     0.032 C 
ATOM     14  C   UNL     1      -0.351   3.506   0.166  1.00  0.00     0.032 C 
BRANCH  12  15
ATOM     15  C   UNL     1      -1.634   2.901  -1.837  1.00  0.00     0.073 C 
ATOM     16  N   UNL     1      -2.640   3.068  -2.385  1.00  0.00    -0.197 NA
ENDBRANCH  12  15
ENDBRANCH   3  12
BRANCH   5  17
ATOM     17  C   UNL     1       2.411  -1.596  -0.903  1.00  0.00     0.181 C 
BRANCH  17  18
ATOM     18  N   UNL     1       3.274  -1.438   0.262  1.00  0.00    -0.249 N 
ATOM     19  C   UNL     1       3.268  -2.188   1.376  1.00  0.00     0.220 A 
ATOM     20  N   UNL     1       4.136  -0.452   0.426  1.00  0.00    -0.160 NA
ATOM     21  N   UNL     1       4.142  -1.713   2.284  1.00  0.00    -0.224 NA
ATOM     22  C   UNL     1       4.662  -0.636   1.653  1.00  0.00     0.246 A 
ENDBRANCH  17  18
ENDBRANCH   5  17
TORSDOF 6
