REMARK SMILES C[C@H]1CC2=CC(=O)CC[C@]2(C)[C@H]2CC[C@@]3(C)[C@@H](CC[C@]3(C)O)[C@H]12
REMARK SMILES IDX 17 1 18 2 19 3 20 4 21 5 15 6 16 7 14 8 13 9 12 10 23 11
REMARK SMILES IDX 2 12 1 13 3 14 4 15 5 16 6 17 7 18 8 19 9 20 10 21 11 22
REMARK SMILES IDX 22 23
REMARK H PARENT 22 24
REMARK Flexibility Score: inf
ROOT
ATOM      1  C   UNL     1       1.437  -0.618  -0.495  1.00  0.00     0.001 C 
ATOM      2  C   UNL     1       2.438  -1.754  -0.656  1.00  0.00     0.007 C 
ATOM      3  C   UNL     1       3.782  -1.037  -0.909  1.00  0.00     0.036 C 
ATOM      4  C   UNL     1       3.570   0.485  -0.590  1.00  0.00     0.068 C 
ATOM      5  C   UNL     1       3.492   1.284  -1.916  1.00  0.00     0.042 C 
ATOM      6  C   UNL     1       2.233   0.493   0.234  1.00  0.00    -0.001 C 
ATOM      7  C   UNL     1       2.562   0.108   1.722  1.00  0.00     0.015 C 
ATOM      8  C   UNL     1       1.410   1.825   0.284  1.00  0.00     0.010 C 
ATOM      9  C   UNL     1       0.092   1.816  -0.519  1.00  0.00     0.005 C 
ATOM     10  C   UNL     1      -0.786   0.509  -0.401  1.00  0.00     0.003 C 
ATOM     11  C   UNL     1       0.009  -0.751   0.104  1.00  0.00    -0.000 C 
ATOM     12  C   UNL     1      -0.806  -2.031  -0.235  1.00  0.00    -0.006 C 
ATOM     13  C   UNL     1      -0.114  -3.336   0.206  1.00  0.00     0.008 C 
ATOM     14  C   UNL     1      -2.174  -1.957   0.482  1.00  0.00     0.035 C 
ATOM     15  C   UNL     1      -2.924  -0.667   0.225  1.00  0.00    -0.060 C 
ATOM     16  C   UNL     1      -4.266  -0.731   0.126  1.00  0.00     0.047 C 
ATOM     17  C   UNL     1      -5.099   0.466  -0.041  1.00  0.00     0.155 C 
ATOM     18  O   UNL     1      -6.349   0.345  -0.136  1.00  0.00    -0.295 OA
ATOM     19  C   UNL     1      -4.487   1.827  -0.043  1.00  0.00     0.081 C 
ATOM     20  C   UNL     1      -3.018   1.766  -0.474  1.00  0.00     0.019 C 
ATOM     21  C   UNL     1      -2.186   0.680   0.292  1.00  0.00    -0.008 C 
ATOM     22  C   UNL     1      -2.024   1.098   1.773  1.00  0.00     0.016 C 
ENDROOT
BRANCH   4  23
ATOM     23  O   UNL     1       4.647   1.039   0.140  1.00  0.00    -0.390 OA
ATOM     24  H   UNL     1       5.012   0.365   0.768  1.00  0.00     0.211 HD
ENDBRANCH   4  23
TORSDOF 1
