REMARK SMILES CN1CCN(C(c2ccccc2)c2ccccc2)CC1
REMARK SMILES IDX 6 1 5 2 1 3 2 4 3 5 20 6 4 7 19 8 7 9 8 10 12 11 9 12 11 13
REMARK SMILES IDX 10 14 13 15 14 16 18 17 15 18 17 19 16 20
REMARK H PARENT
REMARK Flexibility Score: inf
ROOT
ATOM      1  C   UNL     1      -0.557  -0.666  -0.380  1.00  0.00     0.117 C 
ENDROOT
BRANCH   1   2
ATOM      2  N   UNL     1       0.788  -0.139  -0.012  1.00  0.00    -0.290 NA
ATOM      3  C   UNL     1       4.616   1.057   0.912  1.00  0.00     0.105 C 
ATOM      4  N   UNL     1       3.228   0.667   0.622  1.00  0.00    -0.304 NA
ATOM      5  C   UNL     1       2.935  -0.659   1.192  1.00  0.00     0.099 C 
ATOM      6  C   UNL     1       2.988   0.663  -0.836  1.00  0.00     0.099 C 
ATOM      7  C   UNL     1       1.438  -0.990   1.020  1.00  0.00     0.101 C 
ATOM      8  C   UNL     1       1.674  -0.059  -1.196  1.00  0.00     0.101 C 
ENDBRANCH   1   2
BRANCH   1   9
ATOM      9  C   UNL     1      -1.458  -0.847   0.832  1.00  0.00    -0.026 A 
ATOM     10  C   UNL     1      -2.198  -2.033   0.988  1.00  0.00     0.006 A 
ATOM     11  C   UNL     1      -1.609   0.181   1.784  1.00  0.00     0.006 A 
ATOM     12  C   UNL     1      -3.053  -2.195   2.082  1.00  0.00     0.000 A 
ATOM     13  C   UNL     1      -2.464   0.012   2.877  1.00  0.00     0.000 A 
ATOM     14  C   UNL     1      -3.185  -1.175   3.026  1.00  0.00     0.000 A 
ENDBRANCH   1   9
BRANCH   1  15
ATOM     15  C   UNL     1      -1.282   0.247  -1.357  1.00  0.00    -0.026 A 
ATOM     16  C   UNL     1      -2.084  -0.310  -2.368  1.00  0.00     0.006 A 
ATOM     17  C   UNL     1      -1.221   1.649  -1.229  1.00  0.00     0.006 A 
ATOM     18  C   UNL     1      -2.788   0.517  -3.250  1.00  0.00     0.000 A 
ATOM     19  C   UNL     1      -1.926   2.471  -2.114  1.00  0.00     0.000 A 
ATOM     20  C   UNL     1      -2.708   1.905  -3.124  1.00  0.00     0.000 A 
ENDBRANCH   1  15
TORSDOF 3
