REMARK SMILES CC(=O)[C@]1(O)Cc2c(O)c3c(c(O)c2[C@@H](O[C@H]2C[C@H](N)[C@H](O)[C@H](C)O2)C1)C(=O)c1ccccc1C3=O
REMARK SMILES IDX 16 1 17 2 24 3 23 4 25 5 21 6 19 7 18 8 22 9 20 11 15 14
REMARK SMILES IDX 26 15 14 16 4 17 7 18 12 19 6 20 8 21 11 22 10 23 27 24
REMARK SMILES IDX 35 25 28 26 29 27 34 28 36 29 30 30 33 31 31 32 32 33 5 34
REMARK SMILES IDX 2 36 1 37 3 38 13 39 9 41
REMARK H PARENT 22 10 20 12 20 13 5 35 13 40 9 42
REMARK Flexibility Score: inf
ROOT
ATOM      1  O   UNL     1      -1.340  -0.840  -0.860  1.00  0.00    -0.344 OA
ENDROOT
BRANCH   1   2
ATOM      2  C   UNL     1      -2.565  -0.163  -0.643  1.00  0.00     0.252 C 
ATOM      3  C   UNL     1      -4.622   0.593   1.455  1.00  0.00     0.041 C 
ATOM      4  C   UNL     1      -4.722  -0.414   0.295  1.00  0.00     0.148 C 
ATOM      5  O   UNL     1      -3.474  -1.035   0.013  1.00  0.00    -0.347 OA
ATOM      6  C   UNL     1      -5.410   0.128  -0.985  1.00  0.00     0.160 C 
ATOM      7  C   UNL     1      -4.459   0.989  -1.850  1.00  0.00     0.087 C 
ATOM      8  C   UNL     1      -3.119   0.256  -2.010  1.00  0.00     0.083 C 
BRANCH   6   9
ATOM      9  O   UNL     1      -6.579   0.834  -0.652  1.00  0.00    -0.389 OA
ATOM     10  H   UNL     1      -7.111   0.916  -1.486  1.00  0.00     0.211 HD
ENDBRANCH   6   9
BRANCH   7  11
ATOM     11  N   UNL     1      -4.256   2.320  -1.267  1.00  0.00    -0.325 NA
ATOM     12  H   UNL     1      -5.163   2.839  -1.296  1.00  0.00     0.119 HD
ATOM     13  H   UNL     1      -3.606   2.859  -1.887  1.00  0.00     0.119 HD
ENDBRANCH   7  11
ENDBRANCH   1   2
BRANCH   1  14
ATOM     14  C   UNL     1      -0.620  -1.046   0.350  1.00  0.00     0.159 C 
ATOM     15  C   UNL     1      -0.847  -2.500   0.803  1.00  0.00     0.081 C 
ATOM     16  C   UNL     1       0.849  -0.718   0.100  1.00  0.00     0.031 A 
ATOM     17  C   UNL     1       0.186  -2.987   1.837  1.00  0.00     0.129 C 
ATOM     18  C   UNL     1       1.891  -1.593   0.492  1.00  0.00     0.008 A 
ATOM     19  C   UNL     1       1.169   0.541  -0.449  1.00  0.00     0.133 A 
ATOM     20  C   UNL     1       1.590  -2.899   1.207  1.00  0.00     0.083 C 
ATOM     21  C   UNL     1       3.234  -1.260   0.190  1.00  0.00     0.131 A 
ATOM     22  C   UNL     1       2.505   0.857  -0.793  1.00  0.00     0.080 A 
ATOM     23  C   UNL     1       3.546  -0.026  -0.426  1.00  0.00     0.080 A 
ATOM     24  C   UNL     1       2.840   2.065  -1.601  1.00  0.00     0.198 C 
ATOM     25  C   UNL     1       4.965   0.368  -0.690  1.00  0.00     0.198 C 
ATOM     26  O   UNL     1       1.956   2.644  -2.289  1.00  0.00    -0.288 OA
ATOM     27  C   UNL     1       4.237   2.534  -1.692  1.00  0.00     0.034 A 
ATOM     28  C   UNL     1       5.280   1.700  -1.251  1.00  0.00     0.034 A 
ATOM     29  O   UNL     1       5.912  -0.422  -0.427  1.00  0.00    -0.288 OA
ATOM     30  C   UNL     1       4.539   3.792  -2.245  1.00  0.00     0.013 A 
ATOM     31  C   UNL     1       6.613   2.137  -1.366  1.00  0.00     0.013 A 
ATOM     32  C   UNL     1       5.865   4.216  -2.349  1.00  0.00     0.001 A 
ATOM     33  C   UNL     1       6.900   3.390  -1.911  1.00  0.00     0.001 A 
BRANCH  17  34
ATOM     34  O   UNL     1      -0.047  -4.350   2.121  1.00  0.00    -0.382 OA
ATOM     35  H   UNL     1      -1.006  -4.467   2.353  1.00  0.00     0.212 HD
ENDBRANCH  17  34
BRANCH  17  36
ATOM     36  C   UNL     1       0.117  -2.169   3.131  1.00  0.00     0.161 C 
ATOM     37  C   UNL     1      -0.492  -2.731   4.385  1.00  0.00     0.091 C 
ATOM     38  O   UNL     1       0.569  -1.033   3.164  1.00  0.00    -0.297 OA
ENDBRANCH  17  36
BRANCH  19  39
ATOM     39  O   UNL     1       0.137   1.474  -0.597  1.00  0.00    -0.507 OA
ATOM     40  H   UNL     1       0.288   2.471  -0.671  1.00  0.00     0.293 HD
ENDBRANCH  19  39
BRANCH  21  41
ATOM     41  O   UNL     1       4.274  -2.153   0.477  1.00  0.00    -0.507 OA
ATOM     42  H   UNL     1       4.140  -3.107   0.784  1.00  0.00     0.293 HD
ENDBRANCH  21  41
ENDBRANCH   1  14
TORSDOF 8
