REMARK SMILES C[C@]12C=C(C=O)C(=O)C=C1CC[C@@H]1[C@@H]2[C@H](O)C[C@@]2(C)[C@H]1CC[C@]2(C)O
REMARK SMILES IDX 20 1 21 2 22 3 23 4 24 5 18 6 19 7 17 8 15 9 14 10 13 11
REMARK SMILES IDX 12 12 11 13 10 14 9 15 7 16 8 17 4 18 3 19 2 20 1 21 25 22
REMARK SMILES IDX 16 24 5 26 6 27
REMARK H PARENT 25 23 16 25
REMARK Flexibility Score: inf
ROOT
ATOM      1  C   UNL     1      -1.561   0.300   0.748  1.00  0.00     0.001 C 
ATOM      2  C   UNL     1      -2.634   0.129   1.816  1.00  0.00     0.007 C 
ATOM      3  C   UNL     1      -3.960   0.420   1.091  1.00  0.00     0.036 C 
ATOM      4  C   UNL     1      -3.648   0.534  -0.427  1.00  0.00     0.068 C 
ATOM      5  C   UNL     1      -3.688   2.024  -0.852  1.00  0.00     0.042 C 
ATOM      6  C   UNL     1      -2.237  -0.144  -0.556  1.00  0.00     0.002 C 
ATOM      7  C   UNL     1      -2.433  -1.696  -0.652  1.00  0.00     0.015 C 
ATOM      8  C   UNL     1      -1.342   0.331  -1.725  1.00  0.00     0.042 C 
ATOM      9  C   UNL     1       0.106  -0.228  -1.626  1.00  0.00     0.119 C 
ATOM     10  C   UNL     1       0.777   0.009  -0.215  1.00  0.00     0.035 C 
ATOM     11  C   UNL     1      -0.189  -0.371   0.972  1.00  0.00    -0.000 C 
ATOM     12  C   UNL     1       0.415   0.063   2.325  1.00  0.00     0.009 C 
ATOM     13  C   UNL     1       1.776  -0.592   2.555  1.00  0.00     0.032 C 
ATOM     14  C   UNL     1       2.683  -0.274   1.393  1.00  0.00    -0.056 C 
ATOM     15  C   UNL     1       3.789   0.450   1.615  1.00  0.00     0.053 C 
ATOM     16  C   UNL     1       4.628   0.914   0.513  1.00  0.00     0.188 C 
ATOM     17  O   UNL     1       5.645   1.616   0.761  1.00  0.00    -0.289 OA
ATOM     18  C   UNL     1       4.280   0.555  -0.869  1.00  0.00     0.059 C 
ATOM     19  C   UNL     1       3.178  -0.175  -1.104  1.00  0.00    -0.000 C 
ATOM     20  C   UNL     1       2.206  -0.648  -0.021  1.00  0.00     0.013 C 
ATOM     21  C   UNL     1       2.166  -2.192  -0.135  1.00  0.00     0.021 C 
ENDROOT
BRANCH   4  22
ATOM     22  O   UNL     1      -4.637  -0.160  -1.154  1.00  0.00    -0.390 OA
ATOM     23  H   UNL     1      -4.391  -0.106  -2.115  1.00  0.00     0.211 HD
ENDBRANCH   4  22
BRANCH   9  24
ATOM     24  O   UNL     1       0.861   0.348  -2.663  1.00  0.00    -0.393 OA
ATOM     25  H   UNL     1       0.956   1.317  -2.468  1.00  0.00     0.210 HD
ENDBRANCH   9  24
BRANCH  18  26
ATOM     26  C   UNL     1       5.170   0.968  -1.978  1.00  0.00     0.263 C 
ATOM     27  O   UNL     1       4.900   0.687  -3.176  1.00  0.00    -0.298 OA
ENDBRANCH  18  26
TORSDOF 3
