REMARK SMILES CCc1cc2c(s1)N(C)C(=O)CN=C2c1ccccc1Cl
REMARK SMILES IDX 3 1 4 2 5 3 6 4 7 5 2 6 1 7 14 8 13 9 15 10 16 11 20 12
REMARK SMILES IDX 17 13 19 14 21 15 18 16 12 17 8 19 9 20 10 21 11 22
REMARK H PARENT
REMARK Flexibility Score: 90.00
ROOT
ATOM      1  C   UNL     1       2.246  -0.860   0.332  1.00  0.00     0.007 A 
ATOM      2  C   UNL     1       0.858  -0.935   0.332  1.00  0.00     0.028 A 
ATOM      3  C   UNL     1       0.227   0.316   0.225  1.00  0.00     0.036 A 
ATOM      4  C   UNL     1       1.141   1.376   0.152  1.00  0.00     0.107 A 
ATOM      5  S   UNL     1       2.707   0.752   0.215  1.00  0.00    -0.122 S 
ENDROOT
BRANCH   1   6
ATOM      6  C   UNL     1       3.183  -2.015   0.495  1.00  0.00     0.043 C 
ATOM      7  C   UNL     1       3.428  -2.304   1.971  1.00  0.00     0.010 C 
ENDBRANCH   1   6
BRANCH   3   8
ATOM      8  C   UNL     1      -1.250   0.457   0.149  1.00  0.00     0.077 C 
ATOM      9  N   UNL     1      -1.869   1.461   0.702  1.00  0.00    -0.274 NA
BRANCH   8  10
ATOM     10  C   UNL     1      -2.047  -0.557  -0.581  1.00  0.00     0.019 A 
ATOM     11  C   UNL     1      -1.615  -0.982  -1.851  1.00  0.00     0.012 A 
ATOM     12  C   UNL     1      -3.235  -1.105  -0.043  1.00  0.00     0.050 A 
ATOM     13  C   UNL     1      -2.349  -1.926  -2.573  1.00  0.00     0.001 A 
ATOM     14  C   UNL     1      -3.963  -2.050  -0.777  1.00  0.00     0.021 A 
ATOM     15  Cl  UNL     1      -3.812  -0.689   1.568  1.00  0.00    -0.084 Cl
ATOM     16  C   UNL     1      -3.523  -2.457  -2.038  1.00  0.00     0.002 A 
ENDBRANCH   8  10
BRANCH   9  17
ATOM     17  C   UNL     1      -1.233   2.517   1.479  1.00  0.00     0.243 CG0
ATOM     18  G   UNL     1      -0.349   3.343   0.596  1.00  0.00     0.000 G0
ENDBRANCH   9  17
ENDBRANCH   3   8
BRANCH   4  19
ATOM     19  N   UNL     1       0.820   2.771  -0.024  1.00  0.00    -0.305 N 
ATOM     20  C   UNL     1       1.789   3.650  -0.685  1.00  0.00     0.154 C 
BRANCH  19  21
ATOM     21  C   UNL     1      -0.349   3.343   0.596  1.00  0.00     0.249 CG0
ATOM     22  O   UNL     1      -0.638   4.556   0.410  1.00  0.00    -0.272 OA
ATOM     23  G   UNL     1      -1.233   2.517   1.479  1.00  0.00     0.000 G0
ENDBRANCH  19  21
ENDBRANCH   4  19
TORSDOF 2
