REMARK SMILES C[C@]12CC[C@H](O)CC1=CC[C@@H]1[C@@H]2CC[C@]2(C)C(=O)CC[C@@H]12
REMARK SMILES IDX 21 1 20 2 19 3 17 4 18 5 15 6 16 7 14 8 13 9 12 10 11 11
REMARK SMILES IDX 10 12 9 13 8 14 7 15 5 16 4 17 3 18 2 19 1 20 6 21
REMARK H PARENT 6 22
REMARK Flexibility Score: inf
ROOT
ATOM      1  C   UNL     1       1.039   1.027  -1.894  1.00  0.00     0.006 C 
ATOM      2  C   UNL     1       1.990   2.153  -2.306  1.00  0.00     0.013 C 
ATOM      3  C   UNL     1       1.788   2.244  -3.829  1.00  0.00     0.076 C 
ATOM      4  C   UNL     1       0.449   1.608  -4.052  1.00  0.00     0.139 C 
ATOM      5  O   UNL     1      -0.069   1.491  -5.152  1.00  0.00    -0.299 OA
ATOM      6  C   UNL     1      -0.205   1.207  -2.771  1.00  0.00     0.029 C 
ATOM      7  C   UNL     1      -1.140   2.376  -2.353  1.00  0.00     0.020 C 
ATOM      8  C   UNL     1      -0.960  -0.135  -2.781  1.00  0.00     0.015 C 
ATOM      9  C   UNL     1      -1.365  -0.539  -1.340  1.00  0.00     0.006 C 
ATOM     10  C   UNL     1      -0.187  -0.483  -0.303  1.00  0.00     0.003 C 
ATOM     11  C   UNL     1       0.677   0.814  -0.414  1.00  0.00     0.001 C 
ATOM     12  C   UNL     1       1.946   0.654   0.435  1.00  0.00     0.031 C 
ATOM     13  C   UNL     1       1.658   0.145   1.820  1.00  0.00    -0.027 C 
ATOM     14  C   UNL     1       0.573  -0.596   2.138  1.00  0.00    -0.065 C 
ATOM     15  C   UNL     1       0.464  -1.146   3.548  1.00  0.00     0.063 C 
ATOM     16  C   UNL     1      -0.049  -2.592   3.534  1.00  0.00     0.118 C 
ATOM     17  C   UNL     1      -1.358  -2.691   2.746  1.00  0.00     0.033 C 
ATOM     18  C   UNL     1      -1.169  -2.211   1.299  1.00  0.00     0.014 C 
ATOM     19  C   UNL     1      -0.628  -0.751   1.187  1.00  0.00    -0.008 C 
ATOM     20  C   UNL     1      -1.733   0.242   1.641  1.00  0.00     0.016 C 
ENDROOT
BRANCH  16  21
ATOM     21  O   UNL     1      -0.270  -3.033   4.847  1.00  0.00    -0.393 OA
ATOM     22  H   UNL     1       0.622  -3.217   5.242  1.00  0.00     0.210 HD
ENDBRANCH  16  21
TORSDOF 1
