REMARK SMILES CCC1(C2=CCCCCC2)C(=O)NC(=O)NC1=O
REMARK SMILES IDX 10 1 4 2 5 3 3 4 11 5 17 6 12 7 13 8 16 9 18 10 14 11 15 14
REMARK SMILES IDX 2 15 1 16 6 17 9 19 8 20 7 21
REMARK H PARENT 13 12 16 13
REMARK Flexibility Score: 80.00
ROOT
ATOM      1  C   UNL     1       1.409  -0.842   0.761  1.00  0.00     0.032 C 
ENDROOT
BRANCH   1   2
ATOM      2  C   UNL     1       0.307  -0.531  -0.248  1.00  0.00    -0.049 C 
ATOM      3  C   UNL     1       0.668  -0.356  -1.549  1.00  0.00    -0.026 C 
BRANCH   2   4
ATOM      4  C   UNL     1      -1.169  -0.496   0.214  1.00  0.00     0.149 C 
ATOM      5  C   UNL     1      -1.246   0.320   1.506  1.00  0.00     0.247 C 
ATOM      6  C   UNL     1      -2.059   0.181  -0.834  1.00  0.00     0.247 C 
ATOM      7  O   UNL     1      -1.120  -0.242   2.629  1.00  0.00    -0.273 OA
ATOM      8  N   UNL     1      -1.370   1.744   1.460  1.00  0.00    -0.277 N 
ATOM      9  N   UNL     1      -2.214   1.604  -0.851  1.00  0.00    -0.277 N 
ATOM     10  O   UNL     1      -2.579  -0.498  -1.761  1.00  0.00    -0.273 OA
ATOM     11  C   UNL     1      -1.816   2.389   0.270  1.00  0.00     0.328 C 
ATOM     12  H   UNL     1      -1.203   2.308   2.323  1.00  0.00     0.174 HD
ATOM     13  H   UNL     1      -2.660   2.067  -1.675  1.00  0.00     0.174 HD
ATOM     14  O   UNL     1      -1.892   3.645   0.221  1.00  0.00    -0.248 OA
BRANCH   4  15
ATOM     15  C   UNL     1      -1.639  -1.965   0.453  1.00  0.00     0.028 C 
ATOM     16  C   UNL     1      -3.090  -2.097   0.938  1.00  0.00     0.006 C 
ENDBRANCH   4  15
ENDBRANCH   2   4
BRANCH   3  17
ATOM     17  C   UNL     1       2.108  -0.383  -2.009  1.00  0.00     0.027 CG0
ATOM     18  G   UNL     1       2.989   0.740  -1.413  1.00  0.00     0.000 G0
ENDBRANCH   3  17
ENDBRANCH   1   2
BRANCH   1  19
ATOM     19  C   UNL     1       2.318   0.368   1.059  1.00  0.00     0.004 C 
BRANCH  19  20
ATOM     20  C   UNL     1       2.485   1.369  -0.100  1.00  0.00     0.001 C 
BRANCH  20  21
ATOM     21  C   UNL     1       2.989   0.740  -1.413  1.00  0.00     0.004 CG0
ATOM     22  G   UNL     1       2.108  -0.383  -2.009  1.00  0.00     0.000 G0
ENDBRANCH  20  21
ENDBRANCH  19  20
ENDBRANCH   1  19
TORSDOF 2
