REMARK SMILES O=C(Oc1ccccc1C(=O)O)c1ccccc1O
REMARK SMILES IDX 3 1 4 2 9 3 8 4 7 5 5 6 6 7 10 8 11 9 12 10 2 12 1 13 13 14
REMARK SMILES IDX 14 15 18 16 15 17 17 18 16 19 19 20
REMARK H PARENT 12 11 19 21
REMARK Flexibility Score: inf
ROOT
ATOM      1  O   UNL     1      -0.374  -0.126   0.011  1.00  0.00    -0.422 OA
ENDROOT
BRANCH   1   2
ATOM      2  C   UNL     1      -1.713   0.284   0.106  1.00  0.00     0.145 A 
ATOM      3  C   UNL     1      -2.746  -0.687   0.127  1.00  0.00     0.102 A 
ATOM      4  C   UNL     1      -4.083  -0.260   0.237  1.00  0.00     0.019 A 
ATOM      5  C   UNL     1      -4.393   1.097   0.338  1.00  0.00     0.001 A 
ATOM      6  C   UNL     1      -2.044   1.648   0.230  1.00  0.00     0.048 A 
ATOM      7  C   UNL     1      -3.376   2.048   0.339  1.00  0.00     0.004 A 
BRANCH   3   8
ATOM      8  C   UNL     1      -2.461  -2.142   0.024  1.00  0.00     0.339 C 
ATOM      9  O   UNL     1      -1.279  -2.565  -0.097  1.00  0.00    -0.246 OA
BRANCH   8  10
ATOM     10  O   UNL     1      -3.505  -3.063   0.060  1.00  0.00    -0.478 OA
ATOM     11  H   UNL     1      -3.326  -4.057  -0.009  1.00  0.00     0.297 HD
ENDBRANCH   8  10
ENDBRANCH   3   8
ENDBRANCH   1   2
BRANCH   1  12
ATOM     12  C   UNL     1       0.657   0.597  -0.608  1.00  0.00     0.347 C 
ATOM     13  O   UNL     1       0.380   1.543  -1.396  1.00  0.00    -0.246 OA
BRANCH  12  14
ATOM     14  C   UNL     1       2.069   0.199  -0.375  1.00  0.00     0.102 A 
ATOM     15  C   UNL     1       2.343  -0.911   0.447  1.00  0.00     0.019 A 
ATOM     16  C   UNL     1       3.152   0.904  -0.953  1.00  0.00     0.130 A 
ATOM     17  C   UNL     1       3.659  -1.313   0.687  1.00  0.00     0.001 A 
ATOM     18  C   UNL     1       4.470   0.488  -0.704  1.00  0.00     0.047 A 
ATOM     19  C   UNL     1       4.721  -0.615   0.112  1.00  0.00     0.004 A 
BRANCH  16  20
ATOM     20  O   UNL     1       2.929   2.013  -1.769  1.00  0.00    -0.507 OA
ATOM     21  H   UNL     1       3.694   2.528  -2.189  1.00  0.00     0.293 HD
ENDBRANCH  16  20
ENDBRANCH  12  14
ENDBRANCH   1  12
TORSDOF 6
