REMARK SMILES NC(N)=NCCN1CCCCCCC1
REMARK SMILES IDX 8 1 7 2 6 3 5 4 4 5 1 6 2 7 3 10 14 13 13 14 12 15 9 17
REMARK SMILES IDX 10 18 11 19
REMARK H PARENT 1 8 1 9 3 11 3 12
REMARK Flexibility Score: 80.00
ROOT
ATOM      1  C   UNL     1      -0.870  -0.666   0.867  1.00  0.00     0.084 C 
ENDROOT
BRANCH   1   2
ATOM      2  N   UNL     1       0.065  -1.074  -0.209  1.00  0.00    -0.301 NA
BRANCH   2   3
ATOM      3  C   UNL     1       1.227  -0.172  -0.359  1.00  0.00     0.108 C 
BRANCH   3   4
ATOM      4  C   UNL     1       2.361  -0.617   0.571  1.00  0.00     0.161 C 
BRANCH   4   5
ATOM      5  N   UNL     1       3.517   0.268   0.435  1.00  0.00    -0.252 NA
ATOM      6  N   UNL     1       4.843   2.193   0.694  1.00  0.00    -0.370 N 
ATOM      7  C   UNL     1       3.643   1.461   0.943  1.00  0.00     0.185 C 
ATOM      8  H   UNL     1       5.604   1.782   0.109  1.00  0.00     0.159 HD
ATOM      9  H   UNL     1       4.974   3.150   1.092  1.00  0.00     0.159 HD
ATOM     10  N   UNL     1       2.618   2.054   1.752  1.00  0.00    -0.370 N 
ATOM     11  H   UNL     1       2.749   3.018   2.129  1.00  0.00     0.159 HD
ATOM     12  H   UNL     1       1.735   1.557   2.000  1.00  0.00     0.159 HD
ENDBRANCH   4   5
ENDBRANCH   3   4
ENDBRANCH   2   3
BRANCH   2  13
ATOM     13  C   UNL     1      -0.499  -1.518  -1.509  1.00  0.00     0.084 C 
BRANCH  13  14
ATOM     14  C   UNL     1      -1.866  -2.230  -1.441  1.00  0.00     0.016 C 
BRANCH  14  15
ATOM     15  C   UNL     1      -3.104  -1.361  -1.108  1.00  0.00     0.001 CG0
ATOM     16  G   UNL     1      -3.047   0.114  -1.542  1.00  0.00     0.000 G0
ENDBRANCH  14  15
ENDBRANCH  13  14
ENDBRANCH   2  13
ENDBRANCH   1   2
BRANCH   1  17
ATOM     17  C   UNL     1      -1.670   0.645   0.636  1.00  0.00     0.016 C 
BRANCH  17  18
ATOM     18  C   UNL     1      -2.031   1.025  -0.811  1.00  0.00     0.001 C 
BRANCH  18  19
ATOM     19  C   UNL     1      -3.047   0.114  -1.542  1.00  0.00     0.000 CG0
ATOM     20  G   UNL     1      -3.104  -1.361  -1.108  1.00  0.00     0.000 G0
ENDBRANCH  18  19
ENDBRANCH  17  18
ENDBRANCH   1  17
TORSDOF 3
