REMARK SMILES COc1ccc2[nH]cc(CCNC(C)=O)c2c1
REMARK SMILES IDX 10 1 9 2 3 3 17 4 4 5 16 6 5 7 6 8 7 9 8 10 2 12 1 13 11 14
REMARK SMILES IDX 12 15 13 16 14 18 15 19
REMARK H PARENT 7 11 12 17
REMARK Flexibility Score: inf
ROOT
ATOM      1  C   UNL     1       1.513  -0.908   0.082  1.00  0.00     0.059 C 
ENDROOT
BRANCH   1   2
ATOM      2  C   UNL     1       0.256  -1.703  -0.101  1.00  0.00    -0.021 A 
ATOM      3  C   UNL     1      -2.958   0.071   0.664  1.00  0.00     0.119 A 
ATOM      4  C   UNL     1      -1.551  -0.068   0.571  1.00  0.00     0.057 A 
ATOM      5  C   UNL     1      -3.793  -1.007   0.286  1.00  0.00     0.048 A 
ATOM      6  C   UNL     1      -1.042  -1.280   0.107  1.00  0.00     0.006 A 
ATOM      7  C   UNL     1      -3.247  -2.214  -0.184  1.00  0.00     0.030 A 
ATOM      8  C   UNL     1      -1.860  -2.316  -0.261  1.00  0.00     0.046 A 
ATOM      9  N   UNL     1      -1.143  -3.365  -0.698  1.00  0.00    -0.361 N 
ATOM     10  C   UNL     1       0.155  -2.994  -0.610  1.00  0.00     0.087 A 
ATOM     11  H   UNL     1      -1.509  -4.278  -1.050  1.00  0.00     0.166 HD
BRANCH   3  12
ATOM     12  O   UNL     1      -3.563   1.251   1.120  1.00  0.00    -0.497 OA
ATOM     13  C   UNL     1      -2.848   2.413   1.528  1.00  0.00     0.278 C 
ENDBRANCH   3  12
ENDBRANCH   1   2
BRANCH   1  14
ATOM     14  C   UNL     1       1.756  -0.001  -1.126  1.00  0.00     0.120 C 
BRANCH  14  15
ATOM     15  N   UNL     1       2.969   0.791  -0.933  1.00  0.00    -0.356 N 
ATOM     16  C   UNL     1       3.019   1.923  -0.053  1.00  0.00     0.216 C 
ATOM     17  H   UNL     1       3.814   0.556  -1.502  1.00  0.00     0.163 HD
ATOM     18  C   UNL     1       4.291   2.691   0.102  1.00  0.00     0.114 C 
ATOM     19  O   UNL     1       1.985   2.299   0.564  1.00  0.00    -0.275 OA
ENDBRANCH  14  15
ENDBRANCH   1  14
TORSDOF 4
