REMARK SMILES O=C1CN(/N=C/c2ccc(-c3ccc([N+](=O)[O-])cc3)o2)C(=O)N1
REMARK SMILES IDX 10 1 9 2 8 3 7 4 20 5 11 6 14 7 13 8 18 9 12 10 19 11 15 12
REMARK SMILES IDX 17 13 16 14 6 15 5 16 4 17 3 18 21 19 2 20 23 21 22 22 1 23
REMARK H PARENT 23 24
REMARK Flexibility Score: inf
ROOT
ATOM      1  C   UNL     1       1.390  -0.246  -0.569  1.00  0.00     0.134 A 
ATOM      2  C   UNL     1       0.892  -1.025  -1.603  1.00  0.00     0.051 A 
ATOM      3  C   UNL     1      -0.480  -0.997  -1.473  1.00  0.00     0.053 A 
ATOM      4  C   UNL     1      -0.736  -0.204  -0.372  1.00  0.00     0.147 A 
ATOM      5  O   UNL     1       0.391   0.227   0.144  1.00  0.00    -0.455 OA
ENDROOT
BRANCH   1   6
ATOM      6  C   UNL     1       2.814   0.041  -0.271  1.00  0.00     0.018 A 
ATOM      7  C   UNL     1       5.514   0.616   0.337  1.00  0.00     0.269 A 
ATOM      8  C   UNL     1       4.477   1.141   1.125  1.00  0.00     0.086 A 
ATOM      9  C   UNL     1       5.186  -0.201  -0.759  1.00  0.00     0.086 A 
ATOM     10  C   UNL     1       3.142   0.857   0.824  1.00  0.00     0.019 A 
ATOM     11  C   UNL     1       3.851  -0.486  -1.060  1.00  0.00     0.019 A 
BRANCH   7  12
ATOM     12  N   UNL     1       6.888   0.910   0.650  1.00  0.00     0.062 N 
ATOM     13  O   UNL     1       7.204   1.711   1.724  1.00  0.00    -0.258 OA
ATOM     14  O   UNL     1       7.814   0.446  -0.047  1.00  0.00    -0.258 OA
ENDBRANCH   7  12
ENDBRANCH   1   6
BRANCH   4  15
ATOM     15  C   UNL     1      -2.056   0.130   0.173  1.00  0.00     0.180 C 
ATOM     16  N   UNL     1      -3.133  -0.311  -0.400  1.00  0.00    -0.173 NA
BRANCH  16  17
ATOM     17  N   UNL     1      -4.431  -0.044   0.075  1.00  0.00    -0.205 N 
ATOM     18  C   UNL     1      -5.627  -0.257  -0.733  1.00  0.00     0.250 C 
ATOM     19  C   UNL     1      -4.834   0.067   1.442  1.00  0.00     0.344 C 
ATOM     20  C   UNL     1      -6.726  -0.174   0.281  1.00  0.00     0.249 C 
ATOM     21  N   UNL     1      -6.239   0.024   1.600  1.00  0.00    -0.275 N 
ATOM     22  O   UNL     1      -4.037   0.131   2.414  1.00  0.00    -0.246 OA
ATOM     23  O   UNL     1      -7.951  -0.281   0.011  1.00  0.00    -0.272 OA
ATOM     24  H   UNL     1      -6.786   0.059   2.488  1.00  0.00     0.174 HD
ENDBRANCH  16  17
ENDBRANCH   4  15
TORSDOF 4
