REMARK SMILES CCN[C@H]1CN(CCCOC)S(=O)(=O)c2sc(S(N)(=O)=O)cc21
REMARK SMILES IDX 7 1 6 2 4 3 5 4 23 5 15 6 22 7 12 8 16 9 17 10 13 11 14 12
REMARK SMILES IDX 3 13 2 15 1 16 18 17 20 18 21 19 19 20 8 23 9 24 10 25 11 26
REMARK H PARENT 3 14 19 21 19 22
REMARK Flexibility Score: inf
ROOT
ATOM      1  C   UNL     1       1.796   0.311  -0.132  1.00  0.00     0.105 C 
ENDROOT
BRANCH   1   2
ATOM      2  N   UNL     1       1.225   0.398  -1.488  1.00  0.00    -0.195 NA
ATOM      3  C   UNL     1      -1.230   1.104  -0.992  1.00  0.00     0.101 C 
ATOM      4  C   UNL     1       0.162   1.419  -1.645  1.00  0.00     0.126 C 
ATOM      5  C   UNL     1      -1.769  -0.257  -1.350  1.00  0.00     0.003 A 
ATOM      6  C   UNL     1      -0.985  -1.299  -1.807  1.00  0.00     0.141 A 
ATOM      7  C   UNL     1      -3.113  -0.624  -1.190  1.00  0.00     0.040 A 
ATOM      8  S   UNL     1       0.717  -1.152  -2.112  1.00  0.00     0.252 S 
ATOM      9  S   UNL     1      -1.922  -2.673  -2.045  1.00  0.00    -0.109 S 
ATOM     10  C   UNL     1      -3.357  -1.945  -1.549  1.00  0.00     0.136 A 
ATOM     11  O   UNL     1       0.965  -1.194  -3.593  1.00  0.00    -0.206 OA
ATOM     12  O   UNL     1       1.455  -2.279  -1.445  1.00  0.00    -0.206 OA
BRANCH   3  13
ATOM     13  N   UNL     1      -1.269   1.267   0.473  1.00  0.00    -0.309 NA
ATOM     14  H   UNL     1      -0.574   0.649   0.945  1.00  0.00     0.123 HD
BRANCH  13  15
ATOM     15  C   UNL     1      -1.090   2.658   0.909  1.00  0.00     0.078 C 
ATOM     16  C   UNL     1      -1.559   2.809   2.350  1.00  0.00     0.020 C 
ENDBRANCH  13  15
ENDBRANCH   3  13
BRANCH  10  17
ATOM     17  S   UNL     1      -4.907  -2.758  -1.457  1.00  0.00     0.247 S 
ATOM     18  O   UNL     1      -5.110  -3.588  -2.693  1.00  0.00    -0.206 OA
ATOM     19  O   UNL     1      -6.008  -1.739  -1.365  1.00  0.00    -0.206 OA
BRANCH  17  20
ATOM     20  N   UNL     1      -4.941  -3.776  -0.060  1.00  0.00    -0.224 NA
ATOM     21  H   UNL     1      -5.900  -4.186  -0.003  1.00  0.00     0.137 HD
ATOM     22  H   UNL     1      -4.829  -3.155   0.773  1.00  0.00     0.137 HD
ENDBRANCH  17  20
ENDBRANCH  10  17
ENDBRANCH   1   2
BRANCH   1  23
ATOM     23  C   UNL     1       3.309   0.082  -0.222  1.00  0.00     0.045 C 
BRANCH  23  24
ATOM     24  C   UNL     1       3.940  -0.024   1.166  1.00  0.00     0.161 C 
BRANCH  24  25
ATOM     25  O   UNL     1       5.330  -0.226   1.025  1.00  0.00    -0.385 OA
ATOM     26  C   UNL     1       5.919  -0.325   2.302  1.00  0.00     0.194 C 
ENDBRANCH  24  25
ENDBRANCH  23  24
ENDBRANCH   1  23
TORSDOF 8
