REMARK SMILES CN1CC[C@]23c4c5ccc(O)c4O[C@H]2C(=O)CC[C@@]3(O)[C@H]1C5
REMARK SMILES IDX 14 1 13 2 12 3 10 4 9 5 8 6 7 7 6 8 5 9 4 10 3 11 2 12 1 13
REMARK SMILES IDX 21 14 22 15 19 16 18 17 17 18 15 19 16 20 20 21 11 23
REMARK H PARENT 20 22 11 24
REMARK Flexibility Score: inf
ROOT
ATOM      1  C   UNL     1       1.140   1.820   0.945  1.00  0.00     0.253 C 
ATOM      2  O   UNL     1       2.434   1.204   0.992  1.00  0.00    -0.477 OA
ATOM      3  C   UNL     1       2.366  -0.075   0.480  1.00  0.00     0.166 A 
ATOM      4  C   UNL     1       3.427  -0.898   0.107  1.00  0.00     0.158 A 
ATOM      5  C   UNL     1       3.130  -2.082  -0.600  1.00  0.00     0.050 A 
ATOM      6  C   UNL     1       1.798  -2.371  -0.971  1.00  0.00     0.008 A 
ATOM      7  C   UNL     1       0.752  -1.519  -0.567  1.00  0.00    -0.038 A 
ATOM      8  C   UNL     1       1.074  -0.432   0.246  1.00  0.00     0.015 A 
ATOM      9  C   UNL     1       0.134   0.626   0.739  1.00  0.00     0.075 C 
ATOM     10  C   UNL     1      -0.480   0.157   2.096  1.00  0.00     0.035 C 
ATOM     11  C   UNL     1      -1.891  -0.456   1.971  1.00  0.00     0.086 C 
ATOM     12  N   UNL     1      -2.073  -1.238   0.730  1.00  0.00    -0.300 NA
ATOM     13  C   UNL     1      -3.458  -1.726   0.629  1.00  0.00     0.105 C 
ATOM     14  C   UNL     1      -1.620  -0.596  -0.541  1.00  0.00     0.093 C 
ATOM     15  C   UNL     1      -0.620  -1.591  -1.195  1.00  0.00     0.058 C 
ATOM     16  C   UNL     1      -0.986   0.829  -0.317  1.00  0.00     0.095 C 
ATOM     17  C   UNL     1      -0.400   1.431  -1.617  1.00  0.00     0.046 C 
ATOM     18  C   UNL     1       0.228   2.806  -1.371  1.00  0.00     0.083 C 
ATOM     19  C   UNL     1       1.139   2.855  -0.165  1.00  0.00     0.174 C 
ATOM     20  O   UNL     1       1.899   3.806  -0.062  1.00  0.00    -0.295 OA
ENDROOT
BRANCH  16  21
ATOM     21  O   UNL     1      -2.004   1.695   0.141  1.00  0.00    -0.387 OA
ATOM     22  H   UNL     1      -1.588   2.445   0.640  1.00  0.00     0.211 HD
ENDBRANCH  16  21
BRANCH   4  23
ATOM     23  O   UNL     1       4.739  -0.536   0.398  1.00  0.00    -0.504 OA
ATOM     24  H   UNL     1       5.520  -1.119   0.122  1.00  0.00     0.293 HD
ENDBRANCH   4  23
TORSDOF 2
