REMARK SMILES COc1nc(N)nc2c1ncn2[C@@H]1O[C@H](CO)[C@@H](O)[C@@H]1O
REMARK SMILES IDX 13 1 14 2 15 3 18 4 20 5 12 6 3 7 4 8 9 9 5 10 8 11 10 12
REMARK SMILES IDX 7 13 11 14 2 15 1 16 6 17 21 20 16 22 17 23 19 25
REMARK H PARENT 6 18 6 19 21 21 17 24 19 26
REMARK Flexibility Score: inf
ROOT
ATOM      1  C   UNL     1      -1.364   1.033  -1.476  1.00  0.00     0.253 C 
ATOM      2  O   UNL     1      -1.876   1.412  -0.215  1.00  0.00    -0.347 OA
ATOM      3  C   UNL     1      -2.870   0.477   0.136  1.00  0.00     0.178 C 
ATOM      4  C   UNL     1      -2.574  -0.825  -0.598  1.00  0.00     0.179 C 
ATOM      5  C   UNL     1      -1.943  -0.333  -1.874  1.00  0.00     0.195 C 
ENDROOT
BRANCH   1   6
ATOM      6  N   UNL     1       0.102   1.018  -1.428  1.00  0.00    -0.285 N 
ATOM      7  C   UNL     1       3.219   0.171  -0.066  1.00  0.00     0.246 A 
ATOM      8  N   UNL     1       2.867  -0.427   1.114  1.00  0.00    -0.176 NA
ATOM      9  C   UNL     1       2.197   0.643  -0.875  1.00  0.00     0.170 A 
ATOM     10  C   UNL     1       1.552  -0.560   1.486  1.00  0.00     0.225 A 
ATOM     11  C   UNL     1       0.909   0.506  -0.489  1.00  0.00     0.171 A 
ATOM     12  N   UNL     1       2.270   1.240  -2.079  1.00  0.00    -0.229 NA
ATOM     13  N   UNL     1       0.556  -0.090   0.675  1.00  0.00    -0.193 NA
ATOM     14  C   UNL     1       0.960   1.451  -2.388  1.00  0.00     0.204 A 
BRANCH   7  15
ATOM     15  O   UNL     1       4.556   0.302  -0.451  1.00  0.00    -0.479 OA
ATOM     16  C   UNL     1       5.633  -0.170   0.348  1.00  0.00     0.280 C 
ENDBRANCH   7  15
BRANCH  10  17
ATOM     17  N   UNL     1       1.224  -1.193   2.720  1.00  0.00    -0.368 N 
ATOM     18  H   UNL     1       0.226  -1.302   3.009  1.00  0.00     0.159 HD
ATOM     19  H   UNL     1       1.977  -1.554   3.345  1.00  0.00     0.159 HD
ENDBRANCH  10  17
ENDBRANCH   1   6
BRANCH   5  20
ATOM     20  O   UNL     1      -0.956  -1.221  -2.334  1.00  0.00    -0.386 OA
ATOM     21  H   UNL     1      -1.436  -2.002  -2.715  1.00  0.00     0.211 HD
ENDBRANCH   5  20
BRANCH   3  22
ATOM     22  C   UNL     1      -2.897   0.286   1.658  1.00  0.00     0.191 C 
BRANCH  22  23
ATOM     23  O   UNL     1      -3.168   1.503   2.298  1.00  0.00    -0.394 OA
ATOM     24  H   UNL     1      -4.139   1.674   2.185  1.00  0.00     0.210 HD
ENDBRANCH  22  23
ENDBRANCH   3  22
BRANCH   4  25
ATOM     25  O   UNL     1      -3.750  -1.541  -0.870  1.00  0.00    -0.387 OA
ATOM     26  H   UNL     1      -3.995  -2.010  -0.031  1.00  0.00     0.211 HD
ENDBRANCH   4  25
TORSDOF 7
