REMARK SMILES CCOC(=O)C1(c2ccccc2)CCN(CCC(C#N)(c2ccccc2)c2ccccc2)CC1
REMARK SMILES IDX 6 1 13 2 14 3 15 4 33 5 34 6 4 7 5 8 3 9 2 10 1 11 7 12 8 13
REMARK SMILES IDX 12 14 9 15 11 16 10 17 16 18 17 19 18 20 19 21 20 22 21 23
REMARK SMILES IDX 22 24 26 25 23 26 25 27 24 28 27 29 28 30 32 31 29 32 31 33
REMARK SMILES IDX 30 34
REMARK H PARENT
REMARK Flexibility Score: inf
ROOT
ATOM      1  C   UNL     1       2.464   0.646  -0.627  1.00  0.00     0.095 C 
ATOM      2  C   UNL     1       1.455  -0.009  -1.656  1.00  0.00     0.039 C 
ATOM      3  C   UNL     1       0.517   1.013  -2.321  1.00  0.00     0.086 C 
ATOM      4  N   UNL     1      -0.270   1.787  -1.330  1.00  0.00    -0.303 NA
ATOM      5  C   UNL     1       0.371   1.968  -0.009  1.00  0.00     0.086 C 
ATOM      6  C   UNL     1       1.893   2.025  -0.158  1.00  0.00     0.039 C 
ENDROOT
BRANCH   1   7
ATOM      7  C   UNL     1       2.640  -0.215   0.619  1.00  0.00     0.316 C 
ATOM      8  O   UNL     1       1.875  -1.190   0.863  1.00  0.00    -0.251 OA
BRANCH   7   9
ATOM      9  O   UNL     1       3.655   0.113   1.525  1.00  0.00    -0.465 OA
BRANCH   9  10
ATOM     10  C   UNL     1       3.915  -0.646   2.700  1.00  0.00     0.229 C 
ATOM     11  C   UNL     1       5.064  -0.015   3.469  1.00  0.00     0.049 C 
ENDBRANCH   9  10
ENDBRANCH   7   9
ENDBRANCH   1   7
BRANCH   1  12
ATOM     12  C   UNL     1       3.866   0.768  -1.266  1.00  0.00    -0.031 A 
ATOM     13  C   UNL     1       4.630   1.961  -1.236  1.00  0.00     0.005 A 
ATOM     14  C   UNL     1       4.486  -0.390  -1.794  1.00  0.00     0.005 A 
ATOM     15  C   UNL     1       5.914   2.006  -1.788  1.00  0.00     0.000 A 
ATOM     16  C   UNL     1       5.769  -0.336  -2.345  1.00  0.00     0.000 A 
ATOM     17  C   UNL     1       6.479   0.863  -2.351  1.00  0.00     0.000 A 
ENDBRANCH   1  12
BRANCH   4  18
ATOM     18  C   UNL     1      -1.704   1.435  -1.253  1.00  0.00     0.087 C 
BRANCH  18  19
ATOM     19  C   UNL     1      -1.971  -0.048  -0.873  1.00  0.00     0.047 C 
BRANCH  19  20
ATOM     20  C   UNL     1      -3.465  -0.371  -0.560  1.00  0.00     0.108 C 
BRANCH  20  21
ATOM     21  C   UNL     1      -4.265   0.011  -1.753  1.00  0.00     0.079 C 
ATOM     22  N   UNL     1      -4.890   0.309  -2.681  1.00  0.00    -0.197 NA
ENDBRANCH  20  21
BRANCH  20  23
ATOM     23  C   UNL     1      -4.040   0.394   0.654  1.00  0.00    -0.023 A 
ATOM     24  C   UNL     1      -5.440   0.430   0.856  1.00  0.00     0.006 A 
ATOM     25  C   UNL     1      -3.217   0.952   1.661  1.00  0.00     0.006 A 
ATOM     26  C   UNL     1      -5.990   1.057   1.977  1.00  0.00     0.000 A 
ATOM     27  C   UNL     1      -3.775   1.579   2.779  1.00  0.00     0.000 A 
ATOM     28  C   UNL     1      -5.159   1.637   2.933  1.00  0.00     0.000 A 
ENDBRANCH  20  23
BRANCH  20  29
ATOM     29  C   UNL     1      -3.572  -1.890  -0.330  1.00  0.00    -0.023 A 
ATOM     30  C   UNL     1      -3.474  -2.443   0.968  1.00  0.00     0.006 A 
ATOM     31  C   UNL     1      -3.641  -2.787  -1.424  1.00  0.00     0.006 A 
ATOM     32  C   UNL     1      -3.521  -3.827   1.165  1.00  0.00     0.000 A 
ATOM     33  C   UNL     1      -3.687  -4.168  -1.219  1.00  0.00     0.000 A 
ATOM     34  C   UNL     1      -3.636  -4.687   0.074  1.00  0.00     0.000 A 
ENDBRANCH  20  29
ENDBRANCH  19  20
ENDBRANCH  18  19
ENDBRANCH   4  18
TORSDOF 10
