REMARK SMILES CS(C)=O
REMARK SMILES IDX 1 1 2 2 3 3 4 4
REMARK H PARENT
REMARK Flexibility Score: inf
ROOT
ATOM      1  C   UNL     1      -1.405  -0.090  -0.274  1.00  0.00     0.123 C 
ATOM      2  S   UNL     1       0.043  -0.842   0.489  1.00  0.00     0.015 S 
ATOM      3  C   UNL     1       1.422   0.142  -0.122  1.00  0.00     0.123 C 
ATOM      4  O   UNL     1      -0.069  -0.431   1.951  1.00  0.00    -0.260 OA
ENDROOT
TORSDOF 0
