REMARK SMILES O=CO
REMARK SMILES IDX 2 1 1 2 3 3
REMARK H PARENT 3 4
REMARK Flexibility Score: inf
ROOT
ATOM      1  C   UNL     1      -0.466  -0.048  -0.330  1.00  0.00     0.444 C 
ATOM      2  O   UNL     1      -0.729   1.145  -0.026  1.00  0.00    -0.256 OA
ENDROOT
BRANCH   1   3
ATOM      3  O   UNL     1       0.850  -0.496  -0.341  1.00  0.00    -0.483 OA
ATOM      4  H   UNL     1       1.613   0.127  -0.106  1.00  0.00     0.296 HD
ENDBRANCH   1   3
TORSDOF 1
