REMARK SMILES CCNC1C2CCC(C2)C1c1ccccc1
REMARK SMILES IDX 4 1 5 2 6 3 7 4 8 5 9 6 10 7 3 8 2 10 1 11 11 12 12 13 16 14
REMARK SMILES IDX 13 15 15 16 14 17
REMARK H PARENT 3 9
REMARK Flexibility Score: inf
ROOT
ATOM      1  C   UNL     1      -0.878  -0.047   0.909  1.00  0.00     0.064 C 
ATOM      2  C   UNL     1      -1.574  -1.439   0.764  1.00  0.00     0.007 C 
ATOM      3  C   UNL     1      -1.340  -2.041  -0.629  1.00  0.00     0.005 C 
ATOM      4  C   UNL     1       0.169  -2.313  -0.621  1.00  0.00     0.004 C 
ATOM      5  C   UNL     1       0.586  -1.966   0.830  1.00  0.00    -0.002 C 
ATOM      6  C   UNL     1      -0.671  -2.323   1.596  1.00  0.00     0.009 C 
ATOM      7  C   UNL     1       0.630  -0.432   1.047  1.00  0.00     0.039 C 
ENDROOT
BRANCH   1   8
ATOM      8  N   UNL     1      -1.141   0.902  -0.196  1.00  0.00    -0.313 NA
ATOM      9  H   UNL     1      -0.784   0.543  -1.110  1.00  0.00     0.122 HD
BRANCH   8  10
ATOM     10  C   UNL     1      -2.553   1.291  -0.321  1.00  0.00     0.078 C 
ATOM     11  C   UNL     1      -2.894   2.411   0.657  1.00  0.00     0.020 C 
ENDBRANCH   8  10
ENDBRANCH   1   8
BRANCH   7  12
ATOM     12  C   UNL     1       1.642   0.366   0.226  1.00  0.00    -0.043 A 
ATOM     13  C   UNL     1       2.726  -0.253  -0.434  1.00  0.00     0.004 A 
ATOM     14  C   UNL     1       1.611   1.774   0.278  1.00  0.00     0.004 A 
ATOM     15  C   UNL     1       3.680   0.514  -1.109  1.00  0.00     0.000 A 
ATOM     16  C   UNL     1       2.568   2.536  -0.399  1.00  0.00     0.000 A 
ATOM     17  C   UNL     1       3.595   1.906  -1.101  1.00  0.00     0.000 A 
ENDBRANCH   7  12
TORSDOF 3
