REMARK SMILES CC(C)(C)NCC(O)c1ccc(O)c(CO)n1
REMARK SMILES IDX 7 1 6 2 5 3 2 5 1 6 3 7 4 8 8 9 9 11 17 12 10 13 14 14 11 15
REMARK SMILES IDX 12 16 15 17 16 18 13 20
REMARK H PARENT 5 4 8 10 16 19 13 21
REMARK Flexibility Score: inf
ROOT
ATOM      1  C   UNL     1       0.108  -1.483  -0.269  1.00  0.00     0.177 C 
ENDROOT
BRANCH   1   2
ATOM      2  C   UNL     1      -0.834  -0.269  -0.176  1.00  0.00     0.119 C 
BRANCH   2   3
ATOM      3  N   UNL     1      -2.215  -0.682  -0.480  1.00  0.00    -0.309 NA
ATOM      4  H   UNL     1      -2.564  -1.228   0.344  1.00  0.00     0.123 HD
BRANCH   3   5
ATOM      5  C   UNL     1      -3.163   0.429  -0.754  1.00  0.00     0.010 C 
ATOM      6  C   UNL     1      -4.581  -0.170  -0.859  1.00  0.00     0.027 C 
ATOM      7  C   UNL     1      -2.833   1.101  -2.105  1.00  0.00     0.027 C 
ATOM      8  C   UNL     1      -3.160   1.484   0.376  1.00  0.00     0.027 C 
ENDBRANCH   3   5
ENDBRANCH   2   3
ENDBRANCH   1   2
BRANCH   1   9
ATOM      9  O   UNL     1      -0.253  -2.484   0.651  1.00  0.00    -0.385 OA
ATOM     10  H   UNL     1      -0.239  -2.084   1.560  1.00  0.00     0.211 HD
ENDBRANCH   1   9
BRANCH   1  11
ATOM     11  C   UNL     1       1.544  -1.066  -0.053  1.00  0.00     0.071 A 
ATOM     12  N   UNL     1       1.929  -0.575   1.158  1.00  0.00    -0.249 NA
ATOM     13  C   UNL     1       2.484  -1.159  -1.088  1.00  0.00     0.030 A 
ATOM     14  C   UNL     1       3.205  -0.174   1.414  1.00  0.00     0.108 A 
ATOM     15  C   UNL     1       3.798  -0.750  -0.859  1.00  0.00     0.050 A 
ATOM     16  C   UNL     1       4.174  -0.251   0.390  1.00  0.00     0.139 A 
BRANCH  14  17
ATOM     17  C   UNL     1       3.528   0.363   2.777  1.00  0.00     0.216 C 
BRANCH  17  18
ATOM     18  O   UNL     1       3.757   1.742   2.696  1.00  0.00    -0.390 OA
ATOM     19  H   UNL     1       3.985   2.037   3.616  1.00  0.00     0.211 HD
ENDBRANCH  17  18
ENDBRANCH  14  17
BRANCH  16  20
ATOM     20  O   UNL     1       5.496   0.157   0.579  1.00  0.00    -0.506 OA
ATOM     21  H   UNL     1       5.835   0.542   1.451  1.00  0.00     0.293 HD
ENDBRANCH  16  20
ENDBRANCH   1  11
TORSDOF 8
