REMARK SMILES Cn1cnc2c1c(=O)[nH]c(=O)n2C
REMARK SMILES IDX 1 1 2 2 3 3 4 4 5 5 6 6 7 7 8 8 9 9 10 10 11 11 12 12 13 13
REMARK H PARENT 9 14
REMARK Flexibility Score: inf
ROOT
ATOM      1  C   UNL     1      -3.136   0.281  -0.072  1.00  0.00     0.151 C 
ATOM      2  N   UNL     1      -1.802  -0.308  -0.132  1.00  0.00    -0.328 N 
ATOM      3  C   UNL     1      -1.492  -1.615  -0.322  1.00  0.00     0.202 A 
ATOM      4  N   UNL     1      -0.154  -1.855  -0.315  1.00  0.00    -0.218 NA
ATOM      5  C   UNL     1       0.370  -0.629  -0.110  1.00  0.00     0.167 A 
ATOM      6  C   UNL     1      -0.612   0.299   0.002  1.00  0.00     0.152 A 
ATOM      7  C   UNL     1      -0.293   1.631   0.236  1.00  0.00     0.279 A 
ATOM      8  O   UNL     1      -1.186   2.513   0.346  1.00  0.00    -0.267 OA
ATOM      9  N   UNL     1       1.027   1.959   0.349  1.00  0.00    -0.272 N 
ATOM     10  C   UNL     1       2.013   1.009   0.237  1.00  0.00     0.329 A 
ATOM     11  O   UNL     1       3.219   1.355   0.369  1.00  0.00    -0.248 OA
ATOM     12  N   UNL     1       1.691  -0.308  -0.015  1.00  0.00    -0.279 N 
ATOM     13  C   UNL     1       2.728  -1.344  -0.100  1.00  0.00     0.157 C 
ATOM     14  H   UNL     1       1.292   2.953   0.533  1.00  0.00     0.175 HD
ENDROOT
TORSDOF 0
