REMARK SMILES COc1ccc2c(c1)N(C[C@H](C)CN(C)C)c1ccccc1S2
REMARK SMILES IDX 11 1 12 2 10 3 9 4 3 5 8 6 4 7 7 8 5 9 6 10 23 11 17 12
REMARK SMILES IDX 22 13 18 14 21 15 19 16 20 17 2 18 1 19 13 20 14 21 15 22
REMARK SMILES IDX 16 23
REMARK H PARENT
REMARK Flexibility Score: inf
ROOT
ATOM      1  C   UNL     1       1.350   0.204  -0.004  1.00  0.00     0.020 C 
ATOM      2  C   UNL     1       1.997   1.373   0.753  1.00  0.00     0.011 C 
ENDROOT
BRANCH   1   3
ATOM      3  C   UNL     1       0.471   0.672  -1.210  1.00  0.00     0.127 C 
BRANCH   3   4
ATOM      4  N   UNL     1      -0.910   1.042  -0.824  1.00  0.00    -0.339 N 
ATOM      5  C   UNL     1      -2.483  -2.294   0.126  1.00  0.00     0.121 A 
ATOM      6  C   UNL     1      -1.532  -1.349  -0.306  1.00  0.00     0.073 A 
ATOM      7  C   UNL     1      -3.816  -1.908   0.266  1.00  0.00     0.048 A 
ATOM      8  C   UNL     1      -1.903  -0.008  -0.577  1.00  0.00     0.059 A 
ATOM      9  C   UNL     1      -4.216  -0.622  -0.085  1.00  0.00     0.021 A 
ATOM     10  C   UNL     1      -3.277   0.306  -0.544  1.00  0.00     0.036 A 
ATOM     11  S   UNL     1      -3.874   1.778  -1.345  1.00  0.00    -0.086 SA
ATOM     12  C   UNL     1      -1.284   2.445  -0.627  1.00  0.00     0.055 A 
ATOM     13  C   UNL     1      -2.645   2.820  -0.590  1.00  0.00     0.036 A 
ATOM     14  C   UNL     1      -0.325   3.459  -0.398  1.00  0.00     0.027 A 
ATOM     15  C   UNL     1      -3.030   4.096  -0.164  1.00  0.00     0.017 A 
ATOM     16  C   UNL     1      -0.715   4.741  -0.000  1.00  0.00     0.002 A 
ATOM     17  C   UNL     1      -2.065   5.050   0.149  1.00  0.00     0.001 A 
BRANCH   5  18
ATOM     18  O   UNL     1      -2.145  -3.623   0.426  1.00  0.00    -0.497 OA
ATOM     19  C   UNL     1      -0.826  -4.155   0.363  1.00  0.00     0.278 C 
ENDBRANCH   5  18
ENDBRANCH   3   4
ENDBRANCH   1   3
BRANCH   1  20
ATOM     20  C   UNL     1       2.438  -0.778  -0.506  1.00  0.00     0.089 C 
BRANCH  20  21
ATOM     21  N   UNL     1       3.284  -1.285   0.600  1.00  0.00    -0.309 NA
ATOM     22  C   UNL     1       2.626  -2.398   1.308  1.00  0.00     0.104 C 
ATOM     23  C   UNL     1       4.583  -1.738   0.078  1.00  0.00     0.104 C 
ENDBRANCH  20  21
ENDBRANCH   1  20
TORSDOF 5
