REMARK SMILES Nc1ncn([C@H]2C[C@H](O)[C@@H](CO)O2)c(=O)n1
REMARK SMILES IDX 6 1 7 2 8 3 10 4 13 5 5 6 2 7 16 8 3 9 14 10 4 11 15 12 1 13
REMARK SMILES IDX 9 16 11 18 12 19
REMARK H PARENT 1 14 1 15 9 17 12 20
REMARK Flexibility Score: inf
ROOT
ATOM      1  C   UNL     1      -0.120   0.042  -0.936  1.00  0.00     0.228 C 
ATOM      2  C   UNL     1      -0.990  -1.197  -0.709  1.00  0.00     0.090 C 
ATOM      3  C   UNL     1      -2.256  -0.650  -0.095  1.00  0.00     0.150 C 
ATOM      4  C   UNL     1      -2.131   0.854  -0.330  1.00  0.00     0.175 C 
ATOM      5  O   UNL     1      -0.760   1.167  -0.376  1.00  0.00    -0.349 OA
ENDROOT
BRANCH   1   6
ATOM      6  N   UNL     1       1.225  -0.130  -0.350  1.00  0.00    -0.255 N 
ATOM      7  C   UNL     1       3.735  -0.482   0.675  1.00  0.00     0.226 A 
ATOM      8  N   UNL     1       2.681  -0.301   1.506  1.00  0.00    -0.157 NA
ATOM      9  N   UNL     1       3.539  -0.499  -0.665  1.00  0.00    -0.203 NA
ATOM     10  C   UNL     1       1.431  -0.129   1.007  1.00  0.00     0.354 A 
ATOM     11  C   UNL     1       2.295  -0.328  -1.177  1.00  0.00     0.210 A 
ATOM     12  O   UNL     1       0.470   0.022   1.807  1.00  0.00    -0.245 OA
BRANCH   7  13
ATOM     13  N   UNL     1       5.045  -0.661   1.209  1.00  0.00    -0.368 N 
ATOM     14  H   UNL     1       5.860  -0.803   0.573  1.00  0.00     0.159 HD
ATOM     15  H   UNL     1       5.200  -0.651   2.242  1.00  0.00     0.159 HD
ENDBRANCH   7  13
ENDBRANCH   1   6
BRANCH   3  16
ATOM     16  O   UNL     1      -3.387  -1.175  -0.739  1.00  0.00    -0.390 OA
ATOM     17  H   UNL     1      -4.167  -0.942  -0.171  1.00  0.00     0.211 HD
ENDBRANCH   3  16
BRANCH   4  18
ATOM     18  C   UNL     1      -2.835   1.686   0.751  1.00  0.00     0.190 C 
BRANCH  18  19
ATOM     19  O   UNL     1      -2.251   1.484   2.010  1.00  0.00    -0.394 OA
ATOM     20  H   UNL     1      -1.455   2.075   2.055  1.00  0.00     0.210 HD
ENDBRANCH  18  19
ENDBRANCH   4  18
TORSDOF 5
