REMARK SMILES CN[C@@H](C)[C@H](O)c1ccccc1
REMARK SMILES IDX 3 1 4 2 2 3 1 4 5 6 6 7 7 9 8 10 12 11 9 12 11 13 10 14
REMARK H PARENT 2 5 6 8
REMARK Flexibility Score: inf
ROOT
ATOM      1  C   UNL     1      -1.386  -0.321   0.249  1.00  0.00     0.083 C 
ATOM      2  C   UNL     1      -1.262  -1.842   0.090  1.00  0.00     0.027 C 
ENDROOT
BRANCH   1   3
ATOM      3  N   UNL     1      -2.802   0.053   0.056  1.00  0.00    -0.314 NA
ATOM      4  C   UNL     1      -3.166   1.257   0.807  1.00  0.00     0.101 C 
ATOM      5  H   UNL     1      -3.005   0.215  -0.958  1.00  0.00     0.122 HD
ENDBRANCH   1   3
BRANCH   1   6
ATOM      6  C   UNL     1      -0.448   0.448  -0.725  1.00  0.00     0.161 C 
BRANCH   6   7
ATOM      7  O   UNL     1      -0.705   0.069  -2.055  1.00  0.00    -0.387 OA
ATOM      8  H   UNL     1      -0.277   0.751  -2.636  1.00  0.00     0.211 HD
ENDBRANCH   6   7
BRANCH   6   9
ATOM      9  C   UNL     1       1.012   0.234  -0.369  1.00  0.00    -0.018 A 
ATOM     10  C   UNL     1       1.779  -0.773  -0.987  1.00  0.00     0.006 A 
ATOM     11  C   UNL     1       1.605   1.022   0.634  1.00  0.00     0.006 A 
ATOM     12  C   UNL     1       3.114  -0.970  -0.621  1.00  0.00     0.000 A 
ATOM     13  C   UNL     1       2.940   0.821   0.996  1.00  0.00     0.000 A 
ATOM     14  C   UNL     1       3.694  -0.173   0.368  1.00  0.00     0.000 A 
ENDBRANCH   6   9
ENDBRANCH   1   6
TORSDOF 4
