REMARK SMILES Cc1cnc(C(=O)NCCc2ccc(S(=O)(=O)NC(=O)NC3CCCCC3)cc2)cn1
REMARK SMILES IDX 11 1 12 2 13 3 14 4 28 5 29 6 10 7 9 8 8 9 6 10 7 11 5 13
REMARK SMILES IDX 1 14 2 15 31 16 3 17 30 18 4 19 15 20 16 21 17 22 18 23
REMARK SMILES IDX 19 24 20 26 21 27 22 29 23 30 27 31 24 32 26 33 25 34
REMARK H PARENT 8 12 18 25 21 28
REMARK Flexibility Score: inf
ROOT
ATOM      1  C   UNL     1       1.982   0.653  -0.200  1.00  0.00    -0.046 A 
ATOM      2  C   UNL     1       1.265   1.727   0.349  1.00  0.00     0.005 A 
ATOM      3  C   UNL     1      -0.033   2.007  -0.090  1.00  0.00     0.022 A 
ATOM      4  C   UNL     1      -0.623   1.224  -1.091  1.00  0.00     0.087 A 
ATOM      5  C   UNL     1       0.094   0.155  -1.646  1.00  0.00     0.022 A 
ATOM      6  C   UNL     1       1.392  -0.124  -1.209  1.00  0.00     0.005 A 
ENDROOT
BRANCH   1   7
ATOM      7  C   UNL     1       3.390   0.370   0.250  1.00  0.00     0.057 C 
BRANCH   7   8
ATOM      8  C   UNL     1       4.395   1.165  -0.588  1.00  0.00     0.121 C 
BRANCH   8   9
ATOM      9  N   UNL     1       5.760   0.899  -0.136  1.00  0.00    -0.350 N 
ATOM     10  C   UNL     1       6.446  -0.327  -0.441  1.00  0.00     0.271 C 
ATOM     11  O   UNL     1       5.893  -1.186  -1.181  1.00  0.00    -0.267 OA
ATOM     12  H   UNL     1       6.258   1.654   0.386  1.00  0.00     0.163 HD
BRANCH  10  13
ATOM     13  C   UNL     1       7.796  -0.587   0.104  1.00  0.00     0.146 A 
ATOM     14  C   UNL     1      11.676  -1.311   1.698  1.00  0.00     0.068 C 
ATOM     15  C   UNL     1      10.311  -1.060   1.143  1.00  0.00     0.056 A 
ATOM     16  N   UNL     1       9.734  -1.967   0.311  1.00  0.00    -0.258 NA
ATOM     17  C   UNL     1       9.617   0.113   1.459  1.00  0.00     0.135 A 
ATOM     18  C   UNL     1       8.498  -1.761  -0.214  1.00  0.00     0.145 A 
ATOM     19  N   UNL     1       8.381   0.319   0.935  1.00  0.00    -0.248 NA
ENDBRANCH  10  13
ENDBRANCH   8   9
ENDBRANCH   7   8
ENDBRANCH   1   7
BRANCH   4  20
ATOM     20  S   UNL     1      -2.264   1.575  -1.624  1.00  0.00     0.265 S 
ATOM     21  O   UNL     1      -2.505   0.945  -2.969  1.00  0.00    -0.201 OA
ATOM     22  O   UNL     1      -2.445   3.063  -1.737  1.00  0.00    -0.201 OA
BRANCH  20  23
ATOM     23  N   UNL     1      -3.387   0.933  -0.472  1.00  0.00    -0.231 N 
ATOM     24  C   UNL     1      -4.801   0.984  -0.689  1.00  0.00     0.328 C 
ATOM     25  H   UNL     1      -3.014   0.519   0.410  1.00  0.00     0.185 HD
ATOM     26  O   UNL     1      -5.258   1.484  -1.752  1.00  0.00    -0.248 OA
ATOM     27  N   UNL     1      -5.693   0.468   0.308  1.00  0.00    -0.335 N 
ATOM     28  H   UNL     1      -5.281   0.097   1.194  1.00  0.00     0.165 HD
BRANCH  27  29
ATOM     29  C   UNL     1      -7.149   0.443   0.119  1.00  0.00     0.083 C 
ATOM     30  C   UNL     1      -7.873   0.269   1.479  1.00  0.00     0.025 C 
ATOM     31  C   UNL     1      -7.521  -0.661  -0.903  1.00  0.00     0.025 C 
ATOM     32  C   UNL     1      -8.142  -1.207   1.793  1.00  0.00     0.002 C 
ATOM     33  C   UNL     1      -8.931  -1.210  -0.662  1.00  0.00     0.002 C 
ATOM     34  C   UNL     1      -9.059  -1.853   0.734  1.00  0.00     0.000 C 
ENDBRANCH  27  29
ENDBRANCH  20  23
ENDBRANCH   4  20
TORSDOF 7
