REMARK SMILES CN(C)CCOC(c1ccccc1)c1ccc(Br)cc1
REMARK SMILES IDX 5 1 4 2 2 3 1 4 3 5 6 6 7 7 8 8 9 9 13 10 10 11 12 12 11 13
REMARK SMILES IDX 14 14 15 15 20 16 16 17 19 18 17 19 18 20
REMARK H PARENT
REMARK Flexibility Score: inf
ROOT
ATOM      1  C   UNL     1       1.441   0.018   0.723  1.00  0.00     0.177 C 
ENDROOT
BRANCH   1   2
ATOM      2  C   UNL     1       2.765  -0.356   0.057  1.00  0.00     0.112 C 
BRANCH   2   3
ATOM      3  N   UNL     1       3.870   0.481   0.574  1.00  0.00    -0.307 NA
ATOM      4  C   UNL     1       4.963   0.544  -0.409  1.00  0.00     0.105 C 
ATOM      5  C   UNL     1       4.389  -0.052   1.846  1.00  0.00     0.105 C 
ENDBRANCH   2   3
ENDBRANCH   1   2
BRANCH   1   6
ATOM      6  O   UNL     1       0.393  -0.691   0.091  1.00  0.00    -0.367 OA
BRANCH   6   7
ATOM      7  C   UNL     1      -0.872  -0.222   0.533  1.00  0.00     0.178 C 
BRANCH   7   8
ATOM      8  C   UNL     1      -1.913  -1.298   0.322  1.00  0.00    -0.015 A 
ATOM      9  C   UNL     1      -1.888  -2.115  -0.825  1.00  0.00     0.007 A 
ATOM     10  C   UNL     1      -2.965  -1.449   1.244  1.00  0.00     0.007 A 
ATOM     11  C   UNL     1      -2.880  -3.079  -1.027  1.00  0.00     0.000 A 
ATOM     12  C   UNL     1      -3.954  -2.415   1.036  1.00  0.00     0.000 A 
ATOM     13  C   UNL     1      -3.911  -3.231  -0.097  1.00  0.00     0.000 A 
ENDBRANCH   7   8
BRANCH   7  14
ATOM     14  C   UNL     1      -1.288   1.021  -0.229  1.00  0.00    -0.015 A 
ATOM     15  C   UNL     1      -2.022   2.028   0.421  1.00  0.00     0.008 A 
ATOM     16  C   UNL     1      -0.999   1.161  -1.599  1.00  0.00     0.008 A 
ATOM     17  C   UNL     1      -2.437   3.164  -0.280  1.00  0.00     0.016 A 
ATOM     18  C   UNL     1      -1.415   2.298  -2.296  1.00  0.00     0.016 A 
ATOM     19  C   UNL     1      -2.133   3.301  -1.638  1.00  0.00     0.017 A 
ATOM     20  Br  UNL     1      -2.702   4.854  -2.594  1.00  0.00    -0.051 Br
ENDBRANCH   7  14
ENDBRANCH   6   7
ENDBRANCH   1   6
TORSDOF 6
