REMARK SMILES CC(=O)Oc1ccc2c3c1O[C@H]1[C@@H](OC(C)=O)C=C[C@H]4[C@@H](C2)N(C)CC[C@@]341
REMARK SMILES IDX 20 1 19 2 18 3 13 4 12 5 11 6 10 7 5 8 6 9 7 10 8 11 9 12
REMARK SMILES IDX 27 13 26 14 25 15 23 16 24 17 21 18 22 19 14 20 15 21 16 22
REMARK SMILES IDX 17 23 4 24 2 25 1 26 3 27
REMARK H PARENT
REMARK Flexibility Score: inf
ROOT
ATOM      1  C   UNL     1      -2.136  -0.013   0.013  1.00  0.00     0.044 C 
ATOM      2  C   UNL     1      -1.697   0.870  -1.133  1.00  0.00    -0.021 C 
ATOM      3  C   UNL     1      -0.884   1.907  -0.881  1.00  0.00     0.017 C 
ATOM      4  C   UNL     1      -0.479   2.229   0.545  1.00  0.00     0.241 C 
ATOM      5  C   UNL     1      -0.076   0.953   1.331  1.00  0.00     0.229 C 
ATOM      6  O   UNL     1       1.274   0.580   1.022  1.00  0.00    -0.481 OA
ATOM      7  C   UNL     1       1.298  -0.599   0.304  1.00  0.00     0.166 A 
ATOM      8  C   UNL     1       2.389  -1.154  -0.364  1.00  0.00     0.173 A 
ATOM      9  C   UNL     1       2.139  -2.253  -1.223  1.00  0.00     0.051 A 
ATOM     10  C   UNL     1       0.815  -2.680  -1.464  1.00  0.00     0.008 A 
ATOM     11  C   UNL     1      -0.256  -2.075  -0.782  1.00  0.00    -0.039 A 
ATOM     12  C   UNL     1       0.047  -1.124   0.191  1.00  0.00     0.012 A 
ATOM     13  C   UNL     1      -0.944  -0.302   0.943  1.00  0.00     0.049 C 
ATOM     14  C   UNL     1      -1.450  -1.063   2.186  1.00  0.00     0.032 C 
ATOM     15  C   UNL     1      -2.209  -2.354   1.807  1.00  0.00     0.085 C 
ATOM     16  N   UNL     1      -3.219  -2.158   0.738  1.00  0.00    -0.302 NA
ATOM     17  C   UNL     1      -4.488  -1.636   1.273  1.00  0.00     0.105 C 
ATOM     18  C   UNL     1      -2.721  -1.388  -0.434  1.00  0.00     0.068 C 
ATOM     19  C   UNL     1      -1.691  -2.254  -1.232  1.00  0.00     0.055 C 
ENDROOT
BRANCH   4  20
ATOM     20  O   UNL     1       0.601   3.163   0.562  1.00  0.00    -0.454 OA
BRANCH  20  21
ATOM     21  C   UNL     1       0.460   4.511   0.216  1.00  0.00     0.303 C 
ATOM     22  C   UNL     1       1.658   5.398   0.215  1.00  0.00     0.139 C 
ATOM     23  O   UNL     1      -0.660   4.975  -0.131  1.00  0.00    -0.253 OA
ENDBRANCH  20  21
ENDBRANCH   4  20
BRANCH   8  24
ATOM     24  O   UNL     1       3.666  -0.614  -0.158  1.00  0.00    -0.423 OA
BRANCH  24  25
ATOM     25  C   UNL     1       4.724  -0.662  -1.075  1.00  0.00     0.308 C 
ATOM     26  C   UNL     1       6.097  -0.298  -0.622  1.00  0.00     0.139 C 
ATOM     27  O   UNL     1       4.518  -0.910  -2.294  1.00  0.00    -0.252 OA
ENDBRANCH  24  25
ENDBRANCH   8  24
TORSDOF 4
