REMARK SMILES CC(=O)O[C@H]1C[C@@H]2CC[C@@H]3[C@H](CC[C@@]4(C)[C@H]3C[C@H]([N+]3(C)CCCCC3)[C@@H]4OC(C)=O)[C@@]2(C)C[C@@H]1N1CCCCC1
REMARK SMILES IDX 16 1 17 2 18 3 26 4 14 5 15 6 13 7 12 8 11 9 10 10 9 11 8 12
REMARK SMILES IDX 7 13 6 14 5 15 34 16 33 17 31 18 32 19 19 20 20 21 21 22
REMARK SMILES IDX 25 23 22 24 24 25 23 26 27 27 28 28 29 29 30 30 35 31 36 32
REMARK SMILES IDX 40 33 37 34 39 35 38 36 4 37 2 38 1 39 3 40
REMARK H PARENT
REMARK Flexibility Score: inf
ROOT
ATOM      1  C   UNL     1      -1.764   0.256   0.048  1.00  0.00     0.008 C 
ATOM      2  C   UNL     1      -3.029   0.499   0.854  1.00  0.00     0.073 C 
ATOM      3  C   UNL     1      -4.150   0.015  -0.108  1.00  0.00     0.227 C 
ATOM      4  C   UNL     1      -3.448  -0.990  -1.107  1.00  0.00     0.240 C 
ATOM      5  C   UNL     1      -1.979  -1.115  -0.609  1.00  0.00     0.014 C 
ATOM      6  C   UNL     1      -1.857  -2.316   0.384  1.00  0.00     0.016 C 
ATOM      7  C   UNL     1      -0.926  -1.265  -1.732  1.00  0.00     0.011 C 
ATOM      8  C   UNL     1       0.518  -1.098  -1.194  1.00  0.00     0.005 C 
ATOM      9  C   UNL     1       0.718   0.210  -0.364  1.00  0.00    -0.001 C 
ATOM     10  C   UNL     1      -0.390   0.377   0.740  1.00  0.00    -0.003 C 
ATOM     11  C   UNL     1      -0.247   1.728   1.472  1.00  0.00     0.004 C 
ATOM     12  C   UNL     1       1.168   1.921   2.034  1.00  0.00     0.004 C 
ATOM     13  C   UNL     1       2.204   1.804   0.904  1.00  0.00    -0.001 C 
ATOM     14  C   UNL     1       3.616   2.230   1.357  1.00  0.00     0.051 C 
ATOM     15  C   UNL     1       4.579   2.256   0.158  1.00  0.00     0.194 C 
ATOM     16  C   UNL     1       4.665   0.852  -0.523  1.00  0.00     0.098 C 
ATOM     17  C   UNL     1       3.224   0.423  -0.950  1.00  0.00     0.030 C 
ATOM     18  C   UNL     1       2.175   0.399   0.214  1.00  0.00    -0.025 C 
ATOM     19  C   UNL     1       2.520  -0.755   1.205  1.00  0.00     0.012 C 
ENDROOT
BRANCH   3  20
ATOM     20  N   UNL     1      -5.459  -0.377   0.561  1.00  0.00    -0.321 N 
ATOM     21  C   UNL     1      -5.309  -1.584   1.423  1.00  0.00     0.334 C 
ATOM     22  C   UNL     1      -5.947   0.722   1.460  1.00  0.00     0.264 C 
ATOM     23  C   UNL     1      -6.539  -0.660  -0.442  1.00  0.00     0.264 C 
ATOM     24  C   UNL     1      -6.358   2.006   0.716  1.00  0.00     0.062 C 
ATOM     25  C   UNL     1      -6.975   0.571  -1.258  1.00  0.00     0.062 C 
ATOM     26  C   UNL     1      -7.420   1.707  -0.340  1.00  0.00     0.012 C 
ENDBRANCH   3  20
BRANCH   4  27
ATOM     27  O   UNL     1      -4.085  -2.261  -1.225  1.00  0.00    -0.456 OA
BRANCH  27  28
ATOM     28  C   UNL     1      -3.973  -3.094  -2.343  1.00  0.00     0.303 C 
ATOM     29  C   UNL     1      -4.590  -4.450  -2.306  1.00  0.00     0.139 C 
ATOM     30  O   UNL     1      -3.336  -2.725  -3.367  1.00  0.00    -0.253 OA
ENDBRANCH  27  28
ENDBRANCH   4  27
BRANCH  16  31
ATOM     31  N   UNL     1       5.331  -0.222   0.288  1.00  0.00    -0.297 NA
ATOM     32  C   UNL     1       6.545   0.214   1.021  1.00  0.00     0.085 C 
ATOM     33  C   UNL     1       5.629  -1.410  -0.570  1.00  0.00     0.085 C 
ATOM     34  C   UNL     1       7.049  -0.878   1.988  1.00  0.00     0.016 C 
ATOM     35  C   UNL     1       6.684  -2.368   0.016  1.00  0.00     0.016 C 
ATOM     36  C   UNL     1       6.685  -2.293   1.534  1.00  0.00     0.003 C 
ENDBRANCH  16  31
BRANCH  15  37
ATOM     37  O   UNL     1       4.112   3.228  -0.784  1.00  0.00    -0.461 OA
BRANCH  37  38
ATOM     38  C   UNL     1       4.901   3.764  -1.808  1.00  0.00     0.302 C 
ATOM     39  C   UNL     1       4.288   4.697  -2.795  1.00  0.00     0.139 C 
ATOM     40  O   UNL     1       6.119   3.456  -1.916  1.00  0.00    -0.253 OA
ENDBRANCH  37  38
ENDBRANCH  15  37
TORSDOF 6
