REMARK SMILES CCC1(CC)C(=O)NC(=O)NC1=O
REMARK SMILES IDX 3 1 6 2 7 3 8 4 9 5 10 6 11 7 12 8 13 9 2 12 1 13 4 14 5 15
REMARK H PARENT 8 10 11 11
REMARK Flexibility Score: inf
ROOT
ATOM      1  C   UNL     1      -0.450   0.082   0.047  1.00  0.00     0.128 C 
ATOM      2  C   UNL     1       0.285   0.156  -1.287  1.00  0.00     0.243 C 
ATOM      3  O   UNL     1      -0.358   0.457  -2.330  1.00  0.00    -0.273 OA
ATOM      4  N   UNL     1       1.687  -0.104  -1.397  1.00  0.00    -0.277 N 
ATOM      5  C   UNL     1       2.470  -0.448  -0.259  1.00  0.00     0.328 C 
ATOM      6  O   UNL     1       3.703  -0.671  -0.388  1.00  0.00    -0.248 OA
ATOM      7  N   UNL     1       1.862  -0.539   1.025  1.00  0.00    -0.277 N 
ATOM      8  C   UNL     1       0.466  -0.293   1.209  1.00  0.00     0.243 C 
ATOM      9  O   UNL     1      -0.018  -0.389   2.370  1.00  0.00    -0.273 OA
ATOM     10  H   UNL     1       2.147  -0.040  -2.333  1.00  0.00     0.174 HD
ATOM     11  H   UNL     1       2.450  -0.793   1.851  1.00  0.00     0.174 HD
ENDROOT
BRANCH   1  12
ATOM     12  C   UNL     1      -1.585  -0.979  -0.062  1.00  0.00     0.023 C 
ATOM     13  C   UNL     1      -1.082  -2.399  -0.353  1.00  0.00     0.005 C 
ENDBRANCH   1  12
BRANCH   1  14
ATOM     14  C   UNL     1      -1.099   1.466   0.343  1.00  0.00     0.023 C 
ATOM     15  C   UNL     1      -0.087   2.611   0.476  1.00  0.00     0.005 C 
ENDBRANCH   1  14
TORSDOF 2
