REMARK SMILES CC(=O)O[C@H]1C[C@@H]2CC[C@@H]3[C@H](CC[C@@]4(C)[C@H]3C[C@H]([N+]3(C)CCCCC3)[C@@H]4OC(C)=O)[C@@]2(C)C[C@@H]1[N+]1(C)CCCCC1
REMARK SMILES IDX 16 1 17 2 18 3 26 4 14 5 15 6 13 7 12 8 11 9 10 10 9 11 8 12
REMARK SMILES IDX 7 13 6 14 5 15 34 16 33 17 31 18 32 19 19 20 20 21 21 22
REMARK SMILES IDX 25 23 22 24 24 25 23 26 27 27 28 28 29 29 30 30 35 31 36 32
REMARK SMILES IDX 37 33 41 34 38 35 40 36 39 37 4 38 2 39 1 40 3 41
REMARK H PARENT
REMARK Flexibility Score: inf
ROOT
ATOM      1  C   UNL     1       2.061   0.079  -0.507  1.00  0.00     0.008 C 
ATOM      2  C   UNL     1       3.394  -0.599  -0.771  1.00  0.00     0.073 C 
ATOM      3  C   UNL     1       4.416   0.555  -0.546  1.00  0.00     0.227 C 
ATOM      4  C   UNL     1       3.683   1.599   0.389  1.00  0.00     0.240 C 
ATOM      5  C   UNL     1       2.309   0.954   0.731  1.00  0.00     0.014 C 
ATOM      6  C   UNL     1       2.422   0.143   2.064  1.00  0.00     0.016 C 
ATOM      7  C   UNL     1       1.136   1.960   0.833  1.00  0.00     0.011 C 
ATOM      8  C   UNL     1      -0.237   1.243   0.892  1.00  0.00     0.005 C 
ATOM      9  C   UNL     1      -0.440   0.201  -0.254  1.00  0.00    -0.001 C 
ATOM     10  C   UNL     1       0.786  -0.779  -0.377  1.00  0.00    -0.003 C 
ATOM     11  C   UNL     1       0.613  -1.732  -1.576  1.00  0.00     0.004 C 
ATOM     12  C   UNL     1      -0.724  -2.481  -1.500  1.00  0.00     0.004 C 
ATOM     13  C   UNL     1      -1.891  -1.481  -1.451  1.00  0.00    -0.001 C 
ATOM     14  C   UNL     1      -3.254  -2.174  -1.610  1.00  0.00     0.056 C 
ATOM     15  C   UNL     1      -4.374  -1.150  -1.844  1.00  0.00     0.234 C 
ATOM     16  C   UNL     1      -4.444  -0.020  -0.743  1.00  0.00     0.227 C 
ATOM     17  C   UNL     1      -3.003   0.478  -0.303  1.00  0.00     0.076 C 
ATOM     18  C   UNL     1      -1.829  -0.558  -0.195  1.00  0.00    -0.021 C 
ATOM     19  C   UNL     1      -1.931  -1.348   1.145  1.00  0.00     0.012 C 
ENDROOT
BRANCH   3  20
ATOM     20  N   UNL     1       5.845   0.146  -0.219  1.00  0.00    -0.321 N 
ATOM     21  C   UNL     1       6.686   1.385  -0.167  1.00  0.00     0.334 C 
ATOM     22  C   UNL     1       6.337  -0.726  -1.343  1.00  0.00     0.264 C 
ATOM     23  C   UNL     1       5.945  -0.608   1.073  1.00  0.00     0.264 C 
ATOM     24  C   UNL     1       7.732  -1.355  -1.120  1.00  0.00     0.062 C 
ATOM     25  C   UNL     1       7.364  -1.134   1.353  1.00  0.00     0.062 C 
ATOM     26  C   UNL     1       7.821  -2.059   0.231  1.00  0.00     0.012 C 
ENDBRANCH   3  20
BRANCH   4  27
ATOM     27  O   UNL     1       4.421   1.951   1.557  1.00  0.00    -0.456 OA
BRANCH  27  28
ATOM     28  C   UNL     1       4.255   3.148   2.262  1.00  0.00     0.303 C 
ATOM     29  C   UNL     1       5.119   3.421   3.445  1.00  0.00     0.139 C 
ATOM     30  O   UNL     1       3.440   4.027   1.868  1.00  0.00    -0.253 OA
ENDBRANCH  27  28
ENDBRANCH   4  27
BRANCH  16  31
ATOM     31  N   UNL     1      -5.523  -0.201   0.334  1.00  0.00    -0.321 N 
ATOM     32  C   UNL     1      -5.406  -1.520   1.012  1.00  0.00     0.334 C 
ATOM     33  C   UNL     1      -6.873  -0.106  -0.336  1.00  0.00     0.264 C 
ATOM     34  C   UNL     1      -5.411   0.889   1.365  1.00  0.00     0.264 C 
ATOM     35  C   UNL     1      -8.081   0.006   0.614  1.00  0.00     0.062 C 
ATOM     36  C   UNL     1      -6.605   1.004   2.330  1.00  0.00     0.062 C 
ATOM     37  C   UNL     1      -7.907   1.173   1.568  1.00  0.00     0.012 C 
ENDBRANCH  16  31
BRANCH  15  38
ATOM     38  O   UNL     1      -4.159  -0.569  -3.136  1.00  0.00    -0.456 OA
BRANCH  38  39
ATOM     39  C   UNL     1      -5.163   0.016  -3.916  1.00  0.00     0.303 C 
ATOM     40  C   UNL     1      -4.805   0.620  -5.233  1.00  0.00     0.139 C 
ATOM     41  O   UNL     1      -6.351   0.078  -3.503  1.00  0.00    -0.253 OA
ENDBRANCH  38  39
ENDBRANCH  15  38
TORSDOF 6
