REMARK SMILES COC(=O)[C@H]1[C@H]2C[C@@H]3c4[nH]c5ccccc5c4CCN3C[C@H]2C[C@@H](OC(=O)c2cc(OC)c(OC)c(OC)c2)[C@@H]1OC
REMARK SMILES IDX 25 1 24 2 22 3 23 4 6 5 21 6 5 7 7 8 20 9 40 10 8 11 19 12
REMARK SMILES IDX 9 13 18 14 17 15 10 16 16 17 11 18 15 20 12 21 14 22 13 23
REMARK SMILES IDX 3 24 4 25 2 26 1 27 41 28 42 29 26 30 27 31 28 32 29 33
REMARK SMILES IDX 39 34 30 35 36 36 33 37 31 38 32 39 37 40 38 41 34 42 35 43
REMARK H PARENT 10 19
REMARK Flexibility Score: inf
ROOT
ATOM      1  O   UNL     1      -2.179  -0.402   0.837  1.00  0.00    -0.456 OA
ENDROOT
BRANCH   1   2
ATOM      2  C   UNL     1      -0.795  -0.612   1.121  1.00  0.00     0.207 C 
ATOM      3  C   UNL     1       1.508   0.454   1.033  1.00  0.00     0.011 C 
ATOM      4  C   UNL     1       0.002   0.661   0.777  1.00  0.00     0.053 C 
ATOM      5  C   UNL     1       2.066  -0.752   0.246  1.00  0.00     0.012 C 
ATOM      6  C   UNL     1       2.316   1.723   0.717  1.00  0.00     0.089 C 
ATOM      7  C   UNL     1       1.232  -2.027   0.559  1.00  0.00     0.135 C 
ATOM      8  C   UNL     1       2.159  -0.428  -1.265  1.00  0.00     0.030 C 
ATOM      9  N   UNL     1       2.349   2.007  -0.737  1.00  0.00    -0.294 NA
ATOM     10  C   UNL     1      -0.287  -1.823   0.308  1.00  0.00     0.173 C 
ATOM     11  C   UNL     1       2.920   0.885  -1.531  1.00  0.00     0.104 C 
ATOM     12  C   UNL     1       3.065   3.280  -1.017  1.00  0.00     0.090 C 
ATOM     13  C   UNL     1       4.409   0.786  -1.310  1.00  0.00     0.037 A 
ATOM     14  C   UNL     1       4.567   3.238  -0.634  1.00  0.00     0.053 C 
ATOM     15  C   UNL     1       5.156   1.900  -0.972  1.00  0.00    -0.016 A 
ATOM     16  N   UNL     1       5.209  -0.271  -1.586  1.00  0.00    -0.357 N 
ATOM     17  C   UNL     1       6.470   1.491  -0.983  1.00  0.00     0.003 A 
ATOM     18  C   UNL     1       6.464   0.170  -1.367  1.00  0.00     0.046 A 
ATOM     19  H   UNL     1       4.932  -1.221  -1.921  1.00  0.00     0.166 HD
ATOM     20  C   UNL     1       7.653   2.176  -0.705  1.00  0.00     0.010 A 
ATOM     21  C   UNL     1       7.650  -0.551  -1.508  1.00  0.00     0.026 A 
ATOM     22  C   UNL     1       8.860   1.467  -0.830  1.00  0.00     0.001 A 
ATOM     23  C   UNL     1       8.859   0.111  -1.230  1.00  0.00     0.002 A 
BRANCH   7  24
ATOM     24  C   UNL     1       1.789  -3.230  -0.159  1.00  0.00     0.311 C 
ATOM     25  O   UNL     1       1.314  -3.595  -1.272  1.00  0.00    -0.252 OA
BRANCH  24  26
ATOM     26  O   UNL     1       2.872  -3.910   0.404  1.00  0.00    -0.469 OA
ATOM     27  C   UNL     1       3.446  -5.067  -0.195  1.00  0.00     0.282 C 
ENDBRANCH  24  26
ENDBRANCH   7  24
BRANCH  10  28
ATOM     28  O   UNL     1      -0.984  -2.986   0.736  1.00  0.00    -0.377 OA
ATOM     29  C   UNL     1      -1.916  -3.410  -0.239  1.00  0.00     0.195 C 
ENDBRANCH  10  28
ENDBRANCH   1   2
BRANCH   1  30
ATOM     30  C   UNL     1      -3.031   0.367   1.639  1.00  0.00     0.338 C 
ATOM     31  O   UNL     1      -2.606   0.862   2.719  1.00  0.00    -0.246 OA
BRANCH  30  32
ATOM     32  C   UNL     1      -4.438   0.580   1.226  1.00  0.00     0.067 A 
ATOM     33  C   UNL     1      -5.313   1.327   2.029  1.00  0.00     0.066 A 
ATOM     34  C   UNL     1      -4.910   0.033   0.023  1.00  0.00     0.066 A 
ATOM     35  C   UNL     1      -6.655   1.509   1.648  1.00  0.00     0.165 A 
ATOM     36  C   UNL     1      -6.248   0.212  -0.380  1.00  0.00     0.165 A 
ATOM     37  C   UNL     1      -7.130   0.941   0.456  1.00  0.00     0.203 A 
BRANCH  35  38
ATOM     38  O   UNL     1      -7.556   2.237   2.441  1.00  0.00    -0.493 OA
ATOM     39  C   UNL     1      -7.250   2.783   3.724  1.00  0.00     0.278 C 
ENDBRANCH  35  38
BRANCH  36  40
ATOM     40  O   UNL     1      -6.713  -0.302  -1.601  1.00  0.00    -0.493 OA
ATOM     41  C   UNL     1      -5.916  -1.016  -2.544  1.00  0.00     0.278 C 
ENDBRANCH  36  40
BRANCH  37  42
ATOM     42  O   UNL     1      -8.491   1.133   0.155  1.00  0.00    -0.490 OA
ATOM     43  C   UNL     1      -9.271   0.315  -0.719  1.00  0.00     0.278 C 
ENDBRANCH  37  42
ENDBRANCH  30  32
ENDBRANCH   1  30
TORSDOF 9
