REMARK SMILES Cc1cc(C(=O)NCCc2ccc(S(=O)(=O)NC(=O)NN3CCCCCC3)cc2)no1
REMARK SMILES IDX 14 1 15 2 16 3 13 4 10 5 11 6 29 7 12 8 28 9 9 10 8 11 7 12
REMARK SMILES IDX 5 13 6 14 4 16 1 17 2 18 3 19 31 20 30 21 17 22 18 23 19 25
REMARK SMILES IDX 20 26 21 28 22 29 23 30 24 31 27 33 26 34 25 35
REMARK H PARENT 7 15 17 24 20 27
REMARK Flexibility Score: 90.00
ROOT
ATOM      1  S   UNL     1      -1.564   0.382   2.268  1.00  0.00     0.265 S 
ATOM      2  O   UNL     1      -1.920   1.735   2.819  1.00  0.00    -0.201 OA
ATOM      3  O   UNL     1      -1.944  -0.673   3.269  1.00  0.00    -0.201 OA
ENDROOT
BRANCH   1   4
ATOM      4  C   UNL     1       0.168   0.307   1.964  1.00  0.00     0.087 A 
ATOM      5  C   UNL     1       2.929   0.183   1.447  1.00  0.00    -0.046 A 
ATOM      6  C   UNL     1       2.220  -0.978   1.797  1.00  0.00     0.005 A 
ATOM      7  C   UNL     1       2.241   1.401   1.335  1.00  0.00     0.005 A 
ATOM      8  C   UNL     1       0.848  -0.914   2.056  1.00  0.00     0.022 A 
ATOM      9  C   UNL     1       0.869   1.463   1.594  1.00  0.00     0.022 A 
BRANCH   5  10
ATOM     10  C   UNL     1       4.399   0.109   1.132  1.00  0.00     0.057 C 
BRANCH  10  11
ATOM     11  C   UNL     1       4.617  -0.163  -0.358  1.00  0.00     0.121 C 
BRANCH  11  12
ATOM     12  N   UNL     1       6.045  -0.265  -0.656  1.00  0.00    -0.350 N 
ATOM     13  C   UNL     1       6.901   0.887  -0.717  1.00  0.00     0.273 C 
ATOM     14  O   UNL     1       6.414   2.041  -0.572  1.00  0.00    -0.267 OA
ATOM     15  H   UNL     1       6.426  -1.208  -0.888  1.00  0.00     0.163 HD
BRANCH  13  16
ATOM     16  C   UNL     1       8.349   0.750  -0.953  1.00  0.00     0.171 A 
ATOM     17  C   UNL     1      11.551  -0.855  -1.514  1.00  0.00     0.091 C 
ATOM     18  C   UNL     1      10.357   0.008  -1.285  1.00  0.00     0.134 A 
ATOM     19  C   UNL     1       9.063  -0.425  -1.095  1.00  0.00     0.082 A 
ATOM     20  O   UNL     1      10.378   1.320  -1.260  1.00  0.00    -0.361 OA
ATOM     21  N   UNL     1       9.187   1.802  -1.059  1.00  0.00    -0.074 NA
ENDBRANCH  13  16
ENDBRANCH  11  12
ENDBRANCH  10  11
ENDBRANCH   5  10
ENDBRANCH   1   4
BRANCH   1  22
ATOM     22  N   UNL     1      -2.414   0.113   0.783  1.00  0.00    -0.230 N 
ATOM     23  C   UNL     1      -3.843   0.094   0.726  1.00  0.00     0.343 C 
ATOM     24  H   UNL     1      -1.859  -0.035  -0.089  1.00  0.00     0.185 HD
ATOM     25  O   UNL     1      -4.517   0.268   1.777  1.00  0.00    -0.246 OA
ATOM     26  N   UNL     1      -4.501  -0.137  -0.533  1.00  0.00    -0.270 N 
ATOM     27  H   UNL     1      -3.909  -0.337  -1.370  1.00  0.00     0.187 HD
BRANCH  26  28
ATOM     28  N   UNL     1      -5.904  -0.123  -0.711  1.00  0.00    -0.220 NA
BRANCH  28  29
ATOM     29  C   UNL     1      -6.419   1.249  -0.537  1.00  0.00     0.108 C 
BRANCH  29  30
ATOM     30  C   UNL     1      -7.949   1.361  -0.698  1.00  0.00     0.018 C 
BRANCH  30  31
ATOM     31  C   UNL     1      -8.567   0.323  -1.651  1.00  0.00     0.001 CG0
ATOM     32  G   UNL     1      -8.873  -1.007  -0.940  1.00  0.00     0.000 G0
ENDBRANCH  30  31
ENDBRANCH  29  30
ENDBRANCH  28  29
BRANCH  28  33
ATOM     33  C   UNL     1      -6.556  -1.135   0.141  1.00  0.00     0.108 C 
BRANCH  33  34
ATOM     34  C   UNL     1      -7.629  -1.864  -0.673  1.00  0.00     0.018 C 
BRANCH  34  35
ATOM     35  C   UNL     1      -8.873  -1.007  -0.940  1.00  0.00     0.001 CG0
ATOM     36  G   UNL     1      -8.567   0.323  -1.651  1.00  0.00     0.000 G0
ENDBRANCH  34  35
ENDBRANCH  33  34
ENDBRANCH  28  33
ENDBRANCH  26  28
ENDBRANCH   1  22
TORSDOF 7
