REMARK SMILES CCCCC[C@H](O)/C=C/[C@@H]1[C@@H](C/C=C\CCCC(=O)O)[C@@H](O)C[C@H]1O.NC(CO)(CO)CO
REMARK SMILES IDX 27 1 26 2 28 5 29 6 30 8 31 9 32 11 33 12
REMARK H PARENT 26 3 26 4 29 7 31 10 33 13
REMARK Flexibility Score: inf
ROOT
ATOM      1  C   UNL     1       0.011  -0.074   0.210  1.00  0.00     0.086 C 
ENDROOT
BRANCH   1   2
ATOM      2  N   UNL     1       0.389  -0.339   1.606  1.00  0.00    -0.319 NA
ATOM      3  H   UNL     1       0.987  -1.197   1.652  1.00  0.00     0.119 HD
ATOM      4  H   UNL     1       0.960   0.454   1.980  1.00  0.00     0.119 HD
ENDBRANCH   1   2
BRANCH   1   5
ATOM      5  C   UNL     1       1.279  -0.007  -0.684  1.00  0.00     0.183 C 
BRANCH   5   6
ATOM      6  O   UNL     1       2.105   1.070  -0.325  1.00  0.00    -0.394 OA
ATOM      7  H   UNL     1       2.735   0.734   0.365  1.00  0.00     0.210 HD
ENDBRANCH   5   6
ENDBRANCH   1   5
BRANCH   1   8
ATOM      8  C   UNL     1      -0.773   1.265   0.151  1.00  0.00     0.183 C 
BRANCH   8   9
ATOM      9  O   UNL     1      -1.239   1.535  -1.145  1.00  0.00    -0.394 OA
ATOM     10  H   UNL     1      -0.523   2.042  -1.610  1.00  0.00     0.210 HD
ENDBRANCH   8   9
ENDBRANCH   1   8
BRANCH   1  11
ATOM     11  C   UNL     1      -0.887  -1.235  -0.282  1.00  0.00     0.183 C 
BRANCH  11  12
ATOM     12  O   UNL     1      -2.020  -1.360   0.535  1.00  0.00    -0.394 OA
ATOM     13  H   UNL     1      -2.548  -2.112   0.160  1.00  0.00     0.210 HD
ENDBRANCH  11  12
ENDBRANCH   1  11
TORSDOF 7
