REMARK SMILES CCOc1ccc2c3c1O[C@H]1[C@@H](O)C=C[C@H]4[C@@H](C2)N(C)CC[C@@]341
REMARK SMILES IDX 11 1 10 2 9 3 4 4 5 5 6 6 7 7 8 8 23 9 22 10 21 11 19 12
REMARK SMILES IDX 20 13 17 14 18 15 16 16 15 17 14 18 12 19 13 20 3 22 2 23
REMARK SMILES IDX 1 24
REMARK H PARENT 13 21
REMARK Flexibility Score: inf
ROOT
ATOM      1  C   UNL     1       0.640  -1.335   1.574  1.00  0.00     0.217 C 
ATOM      2  O   UNL     1       1.286  -1.656   0.335  1.00  0.00    -0.482 OA
ATOM      3  C   UNL     1       0.781  -0.883  -0.689  1.00  0.00     0.165 A 
ATOM      4  C   UNL     1       1.303  -0.755  -1.977  1.00  0.00     0.161 A 
ATOM      5  C   UNL     1       0.781   0.276  -2.795  1.00  0.00     0.051 A 
ATOM      6  C   UNL     1      -0.165   1.184  -2.274  1.00  0.00     0.008 A 
ATOM      7  C   UNL     1      -0.662   1.016  -0.968  1.00  0.00    -0.039 A 
ATOM      8  C   UNL     1      -0.255  -0.114  -0.255  1.00  0.00     0.012 A 
ATOM      9  C   UNL     1      -0.586  -0.425   1.172  1.00  0.00     0.048 C 
ATOM     10  C   UNL     1      -1.942  -1.193   1.250  1.00  0.00     0.032 C 
ATOM     11  C   UNL     1      -3.116  -0.308   1.715  1.00  0.00     0.085 C 
ATOM     12  N   UNL     1      -3.085   1.026   1.081  1.00  0.00    -0.302 NA
ATOM     13  C   UNL     1      -4.217   1.841   1.548  1.00  0.00     0.105 C 
ATOM     14  C   UNL     1      -1.791   1.763   1.201  1.00  0.00     0.068 C 
ATOM     15  C   UNL     1      -1.355   2.147  -0.241  1.00  0.00     0.055 C 
ATOM     16  C   UNL     1      -0.690   0.919   1.929  1.00  0.00     0.044 C 
ATOM     17  C   UNL     1       0.661   1.597   1.999  1.00  0.00    -0.022 C 
ATOM     18  C   UNL     1       1.753   0.861   2.256  1.00  0.00     0.004 C 
ATOM     19  C   UNL     1       1.621  -0.621   2.545  1.00  0.00     0.178 C 
ENDROOT
BRANCH  19  20
ATOM     20  O   UNL     1       2.877  -1.252   2.558  1.00  0.00    -0.385 OA
ATOM     21  H   UNL     1       3.321  -1.061   1.691  1.00  0.00     0.211 HD
ENDBRANCH  19  20
BRANCH   4  22
ATOM     22  O   UNL     1       2.329  -1.615  -2.389  1.00  0.00    -0.490 OA
BRANCH  22  23
ATOM     23  C   UNL     1       2.948  -1.564  -3.671  1.00  0.00     0.226 C 
ATOM     24  C   UNL     1       4.012  -2.646  -3.765  1.00  0.00     0.049 C 
ENDBRANCH  22  23
ENDBRANCH   4  22
TORSDOF 3
