REMARK SMILES CCCN(CCC)S(=O)(=O)c1ccc(C(=O)O)cc1
REMARK SMILES IDX 8 1 9 2 10 3 4 4 3 5 2 6 1 7 5 8 6 9 7 10 11 11 12 12 19 13
REMARK SMILES IDX 13 14 18 15 14 16 15 17 16 18 17 19
REMARK H PARENT 17 20
REMARK Flexibility Score: inf
ROOT
ATOM      1  S   UNL     1      -0.393   1.180   0.894  1.00  0.00     0.243 S 
ATOM      2  O   UNL     1      -0.979   0.860   2.242  1.00  0.00    -0.207 OA
ATOM      3  O   UNL     1      -0.379   2.673   0.713  1.00  0.00    -0.207 OA
ENDROOT
BRANCH   1   4
ATOM      4  N   UNL     1      -1.336   0.425  -0.371  1.00  0.00    -0.198 NA
BRANCH   4   5
ATOM      5  C   UNL     1      -1.553  -1.017  -0.127  1.00  0.00     0.102 C 
BRANCH   5   6
ATOM      6  C   UNL     1      -1.238  -1.819  -1.393  1.00  0.00     0.013 C 
ATOM      7  C   UNL     1       0.235  -1.720  -1.784  1.00  0.00     0.005 C 
ENDBRANCH   5   6
ENDBRANCH   4   5
BRANCH   4   8
ATOM      8  C   UNL     1      -2.568   1.169  -0.709  1.00  0.00     0.102 C 
BRANCH   8   9
ATOM      9  C   UNL     1      -3.504   1.432   0.491  1.00  0.00     0.013 C 
ATOM     10  C   UNL     1      -4.843   1.995   0.025  1.00  0.00     0.005 C 
ENDBRANCH   8   9
ENDBRANCH   4   8
ENDBRANCH   1   4
BRANCH   1  11
ATOM     11  C   UNL     1       1.260   0.582   0.803  1.00  0.00     0.082 A 
ATOM     12  C   UNL     1       2.116   1.055  -0.198  1.00  0.00     0.022 A 
ATOM     13  C   UNL     1       1.715  -0.398   1.695  1.00  0.00     0.022 A 
ATOM     14  C   UNL     1       3.418   0.559  -0.305  1.00  0.00     0.017 A 
ATOM     15  C   UNL     1       3.017  -0.896   1.590  1.00  0.00     0.017 A 
ATOM     16  C   UNL     1       3.883  -0.423   0.589  1.00  0.00     0.060 A 
BRANCH  16  17
ATOM     17  C   UNL     1       5.259  -0.955   0.478  1.00  0.00     0.335 C 
ATOM     18  O   UNL     1       6.036  -0.534  -0.421  1.00  0.00    -0.246 OA
BRANCH  17  19
ATOM     19  O   UNL     1       5.709  -1.929   1.366  1.00  0.00    -0.478 OA
ATOM     20  H   UNL     1       6.649  -2.300   1.299  1.00  0.00     0.297 HD
ENDBRANCH  17  19
ENDBRANCH  16  17
ENDBRANCH   1  11
TORSDOF 8
