REMARK SMILES CN1C(=O)CCS(=O)(=O)C1c1ccc(Cl)cc1
REMARK SMILES IDX 1 1 2 2 10 3 7 4 8 5 9 6 6 7 5 8 3 9 4 10 11 11 12 12 17 13
REMARK SMILES IDX 13 14 16 15 14 16 15 17
REMARK H PARENT
REMARK Flexibility Score: inf
ROOT
ATOM      1  C   UNL     1      -0.747   2.556  -0.661  1.00  0.00     0.148 C 
ATOM      2  N   UNL     1      -1.037   1.118  -0.643  1.00  0.00    -0.325 N 
ATOM      3  C   UNL     1       0.000   0.193  -1.149  1.00  0.00     0.235 C 
ATOM      4  S   UNL     1      -0.657  -1.409  -1.635  1.00  0.00     0.176 S 
ATOM      5  O   UNL     1       0.008  -2.514  -0.861  1.00  0.00    -0.226 OA
ATOM      6  O   UNL     1      -0.419  -1.626  -3.103  1.00  0.00    -0.226 OA
ATOM      7  C   UNL     1      -2.401  -1.451  -1.317  1.00  0.00     0.149 C 
ATOM      8  C   UNL     1      -2.676  -0.766   0.010  1.00  0.00     0.116 C 
ATOM      9  C   UNL     1      -2.281   0.681  -0.043  1.00  0.00     0.224 C 
ATOM     10  O   UNL     1      -3.057   1.529   0.476  1.00  0.00    -0.275 OA
ENDROOT
BRANCH   3  11
ATOM     11  C   UNL     1       1.126   0.034  -0.147  1.00  0.00    -0.010 A 
ATOM     12  C   UNL     1       0.866  -0.117   1.228  1.00  0.00     0.008 A 
ATOM     13  C   UNL     1       2.457  -0.024  -0.598  1.00  0.00     0.008 A 
ATOM     14  C   UNL     1       1.918  -0.297   2.132  1.00  0.00     0.021 A 
ATOM     15  C   UNL     1       3.506  -0.204   0.308  1.00  0.00     0.021 A 
ATOM     16  C   UNL     1       3.237  -0.339   1.674  1.00  0.00     0.041 A 
ATOM     17  Cl  UNL     1       4.555  -0.566   2.809  1.00  0.00    -0.084 Cl
ENDBRANCH   3  11
TORSDOF 1
