REMARK SMILES C[C@@H](CO)NC(=O)[C@@H]1C=C2c3cccc4[nH]cc(c34)C[C@H]2N(C)C1
REMARK SMILES IDX 2 1 1 2 5 3 6 4 7 5 8 7 21 8 20 9 10 10 22 11 18 12 11 13
REMARK SMILES IDX 9 14 24 15 23 16 17 17 19 18 12 19 16 20 15 21 13 22 14 24
REMARK SMILES IDX 3 25 4 26
REMARK H PARENT 5 6 16 23 4 27
REMARK Flexibility Score: inf
ROOT
ATOM      1  C   UNL     1      -5.005   0.082   0.162  1.00  0.00     0.104 C 
ATOM      2  C   UNL     1      -5.122   1.599  -0.041  1.00  0.00     0.033 C 
ENDROOT
BRANCH   1   3
ATOM      3  N   UNL     1      -3.665  -0.310   0.621  1.00  0.00    -0.351 N 
ATOM      4  C   UNL     1      -2.431  -0.035  -0.067  1.00  0.00     0.228 C 
ATOM      5  O   UNL     1      -2.426   0.631  -1.138  1.00  0.00    -0.274 OA
ATOM      6  H   UNL     1      -3.611  -0.827   1.528  1.00  0.00     0.163 HD
BRANCH   4   7
ATOM      7  C   UNL     1      -1.132  -0.576   0.472  1.00  0.00     0.115 C 
ATOM      8  C   UNL     1       1.679  -1.126  -0.228  1.00  0.00     0.091 C 
ATOM      9  C   UNL     1       3.081  -1.506   0.368  1.00  0.00     0.061 C 
ATOM     10  C   UNL     1       1.206   0.266   0.261  1.00  0.00    -0.026 C 
ATOM     11  N   UNL     1       0.678  -2.186   0.074  1.00  0.00    -0.298 NA
ATOM     12  C   UNL     1       4.001  -0.324   0.372  1.00  0.00    -0.020 A 
ATOM     13  C   UNL     1       2.226   1.350   0.370  1.00  0.00    -0.011 A 
ATOM     14  C   UNL     1      -0.090   0.506   0.524  1.00  0.00    -0.007 C 
ATOM     15  C   UNL     1      -0.661  -1.760  -0.374  1.00  0.00     0.102 C 
ATOM     16  C   UNL     1       1.021  -3.459  -0.589  1.00  0.00     0.106 C 
ATOM     17  C   UNL     1       5.383  -0.226   0.511  1.00  0.00     0.087 A 
ATOM     18  C   UNL     1       3.543   0.948   0.403  1.00  0.00     0.010 A 
ATOM     19  C   UNL     1       1.989   2.745   0.443  1.00  0.00     0.009 A 
ATOM     20  N   UNL     1       5.746   1.082   0.595  1.00  0.00    -0.361 N 
ATOM     21  C   UNL     1       4.600   1.788   0.530  1.00  0.00     0.046 A 
ATOM     22  C   UNL     1       3.081   3.645   0.565  1.00  0.00     0.003 A 
ATOM     23  H   UNL     1       6.713   1.458   0.717  1.00  0.00     0.166 HD
ATOM     24  C   UNL     1       4.410   3.166   0.618  1.00  0.00     0.027 A 
ENDBRANCH   4   7
ENDBRANCH   1   3
BRANCH   1  25
ATOM     25  C   UNL     1      -5.447  -0.730  -1.070  1.00  0.00     0.180 C 
BRANCH  25  26
ATOM     26  O   UNL     1      -4.687  -0.420  -2.206  1.00  0.00    -0.394 OA
ATOM     27  H   UNL     1      -5.136   0.343  -2.656  1.00  0.00     0.210 HD
ENDBRANCH  25  26
ENDBRANCH   1  25
TORSDOF 4
