REMARK SMILES COc1cc2c3cc1Oc1cc(ccc1O)C[C@@H]1c4c(cc(OC)c(O)c4Oc4ccc(cc4)C[C@@H]3N(C)CC2)CC[N+]1(C)C
REMARK SMILES IDX 35 1 36 2 37 3 6 4 39 5 38 6 5 7 7 8 40 9 4 10 8 11 3 12
REMARK SMILES IDX 9 13 10 14 11 15 15 16 12 17 14 18 13 19 16 20 17 22 2 24
REMARK SMILES IDX 1 25 32 26 31 27 33 28 30 29 34 30 29 31 28 32 27 33 19 34
REMARK SMILES IDX 25 35 20 36 18 37 22 38 41 39 21 40 43 41 42 43 44 44 45 45
REMARK SMILES IDX 26 46 23 48 24 49
REMARK H PARENT 16 21 26 47
REMARK Flexibility Score: 70.00
ROOT
ATOM      1  C   UNL     1       3.263   2.614  -0.919  1.00  0.00     0.059 C 
ENDROOT
BRANCH   1   2
ATOM      2  C   UNL     1       3.989   2.121   0.354  1.00  0.00     0.091 C 
ATOM      3  N   UNL     1       5.292   2.781   0.592  1.00  0.00    -0.299 NA
ATOM      4  C   UNL     1       4.212   0.634   0.283  1.00  0.00    -0.023 A 
ATOM      5  C   UNL     1       6.256   2.556  -0.503  1.00  0.00     0.089 C 
ATOM      6  C   UNL     1       5.168   4.213   0.916  1.00  0.00     0.106 C 
ATOM      7  C   UNL     1       5.388   0.139  -0.316  1.00  0.00    -0.038 A 
ATOM      8  C   UNL     1       3.254  -0.265   0.793  1.00  0.00     0.056 A 
ATOM      9  C   UNL     1       6.512   1.053  -0.750  1.00  0.00     0.051 C 
ATOM     10  C   UNL     1       5.581  -1.244  -0.412  1.00  0.00     0.054 A 
ATOM     11  C   UNL     1       3.473  -1.643   0.742  1.00  0.00     0.169 A 
ATOM     12  C   UNL     1       4.638  -2.138   0.131  1.00  0.00     0.161 A 
BRANCH  11  13
ATOM     13  O   UNL     1       2.576  -2.531   1.356  1.00  0.00    -0.450 OA
BRANCH  13  14
ATOM     14  C   UNL     1       1.303  -2.788   0.830  1.00  0.00     0.169 A 
ATOM     15  C   UNL     1       0.236  -1.904   1.068  1.00  0.00     0.055 A 
ATOM     16  C   UNL     1       1.072  -3.972   0.100  1.00  0.00     0.158 A 
ATOM     17  C   UNL     1      -1.054  -2.167   0.554  1.00  0.00    -0.038 A 
ATOM     18  C   UNL     1      -0.175  -4.196  -0.487  1.00  0.00     0.050 A 
ATOM     19  C   UNL     1      -1.229  -3.304  -0.271  1.00  0.00     0.008 A 
BRANCH  16  20
ATOM     20  O   UNL     1       2.057  -4.961  -0.019  1.00  0.00    -0.504 OA
ATOM     21  H   UNL     1       2.896  -4.940   0.531  1.00  0.00     0.293 HD
ENDBRANCH  16  20
BRANCH  17  22
ATOM     22  C   UNL     1      -2.218  -1.311   1.061  1.00  0.00     0.106 CG0
ATOM     23  G   UNL     1      -3.518  -1.262   0.167  1.00  0.00     0.000 G0
ENDBRANCH  17  22
ENDBRANCH  13  14
ENDBRANCH  11  13
BRANCH  12  24
ATOM     24  O   UNL     1       4.839  -3.519   0.093  1.00  0.00    -0.493 OA
ATOM     25  C   UNL     1       5.963  -4.161  -0.489  1.00  0.00     0.278 C 
ENDBRANCH  12  24
ENDBRANCH   1   2
BRANCH   1  26
ATOM     26  C   UNL     1       1.888   2.011  -1.069  1.00  0.00    -0.046 A 
ATOM     27  C   UNL     1       0.854   2.397  -0.206  1.00  0.00     0.007 A 
ATOM     28  C   UNL     1       1.630   1.045  -2.060  1.00  0.00     0.007 A 
ATOM     29  C   UNL     1      -0.425   1.858  -0.351  1.00  0.00     0.047 A 
ATOM     30  C   UNL     1       0.343   0.520  -2.209  1.00  0.00     0.047 A 
ATOM     31  C   UNL     1      -0.700   0.939  -1.381  1.00  0.00     0.127 A 
BRANCH  31  32
ATOM     32  O   UNL     1      -1.990   0.433  -1.597  1.00  0.00    -0.453 OA
BRANCH  32  33
ATOM     33  C   UNL     1      -3.138   0.980  -0.993  1.00  0.00     0.182 A 
ATOM     34  C   UNL     1      -3.889   0.203  -0.078  1.00  0.00     0.060 A 
ATOM     35  C   UNL     1      -3.508   2.316  -1.251  1.00  0.00     0.201 A 
ATOM     36  C   UNL     1      -4.914   0.818   0.672  1.00  0.00    -0.026 A 
ATOM     37  C   UNL     1      -3.518  -1.262   0.167  1.00  0.00     0.225 CG0
ATOM     38  C   UNL     1      -4.536   2.912  -0.520  1.00  0.00     0.164 A 
ATOM     39  C   UNL     1      -5.758   0.049   1.660  1.00  0.00     0.097 C 
ATOM     40  C   UNL     1      -5.233   2.163   0.441  1.00  0.00     0.055 A 
ATOM     41  N   UNL     1      -4.695  -2.042   0.716  1.00  0.00    -0.322 N 
ATOM     42  G   UNL     1      -2.218  -1.311   1.061  1.00  0.00     0.000 G0
ATOM     43  C   UNL     1      -5.254  -1.379   1.928  1.00  0.00     0.268 C 
ATOM     44  C   UNL     1      -5.755  -2.159  -0.336  1.00  0.00     0.334 C 
ATOM     45  C   UNL     1      -4.336  -3.438   1.088  1.00  0.00     0.334 C 
BRANCH  35  46
ATOM     46  O   UNL     1      -2.858   3.073  -2.228  1.00  0.00    -0.502 OA
ATOM     47  H   UNL     1      -2.129   2.689  -2.822  1.00  0.00     0.293 HD
ENDBRANCH  35  46
BRANCH  38  48
ATOM     48  O   UNL     1      -4.831   4.256  -0.775  1.00  0.00    -0.493 OA
ATOM     49  C   UNL     1      -5.771   5.024  -0.037  1.00  0.00     0.278 C 
ENDBRANCH  38  48
ENDBRANCH  32  33
ENDBRANCH  31  32
ENDBRANCH   1  26
TORSDOF 4
