REMARK SMILES O=C1CN=C(c2ccccn2)c2cc(Br)ccc2N1
REMARK SMILES IDX 15 1 14 2 13 3 12 4 18 5 17 6 16 7 5 8 4 9 6 10 7 11 11 12
REMARK SMILES IDX 8 13 10 14 9 15 3 16 19 18 2 19 1 21
REMARK H PARENT 19 20
REMARK Flexibility Score: 90.00
ROOT
ATOM      1  Br  UNL     1      -0.933   4.307   1.563  1.00  0.00    -0.051 Br
ATOM      2  C   UNL     1      -1.367   2.651   0.716  1.00  0.00     0.018 A 
ATOM      3  C   UNL     1      -0.511   1.556   0.844  1.00  0.00     0.028 A 
ATOM      4  C   UNL     1      -0.807   0.330   0.218  1.00  0.00     0.027 A 
ATOM      5  C   UNL     1      -2.021   0.208  -0.512  1.00  0.00     0.050 A 
ATOM      6  C   UNL     1      -2.857   1.328  -0.649  1.00  0.00     0.028 A 
ATOM      7  C   UNL     1      -2.534   2.539  -0.037  1.00  0.00     0.018 A 
ENDROOT
BRANCH   4   8
ATOM      8  C   UNL     1       0.186  -0.782   0.319  1.00  0.00     0.093 C 
ATOM      9  N   UNL     1      -0.180  -2.001   0.597  1.00  0.00    -0.272 NA
BRANCH   8  10
ATOM     10  C   UNL     1       1.635  -0.524   0.145  1.00  0.00     0.089 A 
ATOM     11  C   UNL     1       2.104   0.539  -0.648  1.00  0.00     0.030 A 
ATOM     12  N   UNL     1       2.536  -1.361   0.733  1.00  0.00    -0.255 NA
ATOM     13  C   UNL     1       3.479   0.732  -0.796  1.00  0.00     0.004 A 
ATOM     14  C   UNL     1       3.879  -1.189   0.599  1.00  0.00     0.112 A 
ATOM     15  C   UNL     1       4.375  -0.134  -0.168  1.00  0.00     0.020 A 
ENDBRANCH   8  10
BRANCH   9  16
ATOM     16  C   UNL     1      -1.555  -2.441   0.784  1.00  0.00     0.243 CG0
ATOM     17  G   UNL     1      -2.290  -2.300  -0.509  1.00  0.00     0.000 G0
ENDBRANCH   9  16
ENDBRANCH   4   8
BRANCH   5  18
ATOM     18  N   UNL     1      -2.422  -1.021  -1.139  1.00  0.00    -0.324 N 
ATOM     19  C   UNL     1      -2.290  -2.300  -0.509  1.00  0.00     0.246 CG0
ATOM     20  H   UNL     1      -3.015  -0.968  -1.999  1.00  0.00     0.170 HD
ATOM     21  O   UNL     1      -2.794  -3.319  -1.054  1.00  0.00    -0.273 OA
ATOM     22  G   UNL     1      -1.555  -2.441   0.784  1.00  0.00     0.000 G0
ENDBRANCH   5  18
TORSDOF 1
