REMARK SMILES O=[N+]([O-])OC[C@H](O[N+](=O)[O-])[C@@H](CO[N+](=O)[O-])O[N+](=O)[O-]
REMARK SMILES IDX 11 1 12 2 13 3 14 4 16 5 15 6 17 7 18 8 20 9 19 10 6 11 5 12
REMARK SMILES IDX 4 13 2 14 3 15 1 16 7 17 8 18 10 19 9 20
REMARK H PARENT
REMARK Flexibility Score: inf
ROOT
ATOM      1  C   UNL     1       0.479  -0.416  -0.444  1.00  0.00     0.223 C 
ENDROOT
BRANCH   1   2
ATOM      2  C   UNL     1       1.834   0.063   0.098  1.00  0.00     0.242 C 
BRANCH   2   3
ATOM      3  O   UNL     1       1.730   0.377   1.483  1.00  0.00    -0.311 OA
BRANCH   3   4
ATOM      4  N   UNL     1       2.810   0.841   2.205  1.00  0.00     0.294 N 
ATOM      5  O   UNL     1       4.037   1.019   1.606  1.00  0.00    -0.109 OA
ATOM      6  O   UNL     1       2.672   1.106   3.415  1.00  0.00    -0.109 OA
ENDBRANCH   3   4
ENDBRANCH   2   3
ENDBRANCH   1   2
BRANCH   1   7
ATOM      7  O   UNL     1       0.060  -1.571   0.287  1.00  0.00    -0.306 OA
BRANCH   7   8
ATOM      8  N   UNL     1       0.616  -2.822   0.093  1.00  0.00     0.294 N 
ATOM      9  O   UNL     1       0.184  -3.876   0.862  1.00  0.00    -0.109 OA
ATOM     10  O   UNL     1       1.467  -3.021  -0.798  1.00  0.00    -0.109 OA
ENDBRANCH   7   8
ENDBRANCH   1   7
BRANCH   1  11
ATOM     11  C   UNL     1      -0.608   0.682  -0.350  1.00  0.00     0.223 C 
BRANCH  11  12
ATOM     12  C   UNL     1      -1.948   0.193  -0.917  1.00  0.00     0.242 C 
BRANCH  12  13
ATOM     13  O   UNL     1      -2.526  -0.786  -0.059  1.00  0.00    -0.311 OA
BRANCH  13  14
ATOM     14  N   UNL     1      -3.733  -1.392  -0.347  1.00  0.00     0.294 N 
ATOM     15  O   UNL     1      -4.239  -2.334   0.517  1.00  0.00    -0.109 OA
ATOM     16  O   UNL     1      -4.370  -1.100  -1.380  1.00  0.00    -0.109 OA
ENDBRANCH  13  14
ENDBRANCH  12  13
ENDBRANCH  11  12
BRANCH  11  17
ATOM     17  O   UNL     1      -0.210   1.831  -1.102  1.00  0.00    -0.306 OA
BRANCH  17  18
ATOM     18  N   UNL     1       0.359   2.950  -0.524  1.00  0.00     0.294 N 
ATOM     19  O   UNL     1       0.517   3.050   0.839  1.00  0.00    -0.109 OA
ATOM     20  O   UNL     1       0.712   3.900  -1.251  1.00  0.00    -0.109 OA
ENDBRANCH  17  18
ENDBRANCH  11  17
ENDBRANCH   1  11
TORSDOF 11
