REMARK SMILES CCN[C@@H](C)Cc1cccc(C(F)(F)F)c1
REMARK SMILES IDX 4 1 5 2 3 3 2 5 1 6 6 7 7 8 8 9 16 10 9 11 11 12 10 13 12 14
REMARK SMILES IDX 13 15 14 16 15 17
REMARK H PARENT 3 4
REMARK Flexibility Score: inf
ROOT
ATOM      1  C   UNL     1      -1.242  -0.111   0.017  1.00  0.00     0.054 C 
ATOM      2  C   UNL     1      -0.790  -1.216   0.986  1.00  0.00     0.024 C 
ENDROOT
BRANCH   1   3
ATOM      3  N   UNL     1      -2.576  -0.451  -0.522  1.00  0.00    -0.314 NA
ATOM      4  H   UNL     1      -2.708   0.004  -1.456  1.00  0.00     0.122 HD
BRANCH   3   5
ATOM      5  C   UNL     1      -3.655   0.048   0.344  1.00  0.00     0.078 C 
ATOM      6  C   UNL     1      -4.999  -0.489  -0.134  1.00  0.00     0.020 C 
ENDBRANCH   3   5
ENDBRANCH   1   3
BRANCH   1   7
ATOM      7  C   UNL     1      -0.222   0.048  -1.137  1.00  0.00     0.054 C 
BRANCH   7   8
ATOM      8  C   UNL     1       1.131   0.509  -0.651  1.00  0.00    -0.046 A 
ATOM      9  C   UNL     1       1.331   1.852  -0.297  1.00  0.00     0.004 A 
ATOM     10  C   UNL     1       2.188  -0.405  -0.514  1.00  0.00     0.016 A 
ATOM     11  C   UNL     1       2.570   2.275   0.188  1.00  0.00     0.001 A 
ATOM     12  C   UNL     1       3.447   0.019  -0.051  1.00  0.00     0.056 A 
ATOM     13  C   UNL     1       3.621   1.364   0.319  1.00  0.00     0.013 A 
BRANCH  12  14
ATOM     14  C   UNL     1       4.562  -0.978   0.143  1.00  0.00     0.416 C 
ATOM     15  F   UNL     1       5.796  -0.363   0.023  1.00  0.00    -0.166 F 
ATOM     16  F   UNL     1       4.458  -1.537   1.403  1.00  0.00    -0.166 F 
ATOM     17  F   UNL     1       4.486  -1.984  -0.805  1.00  0.00    -0.166 F 
ENDBRANCH  12  14
ENDBRANCH   7   8
ENDBRANCH   1   7
TORSDOF 5
