REMARK SMILES C/C=C/C/C=C/CCC(=O)[C@H]1O[C@H]1C(N)=O
REMARK SMILES IDX 8 1 9 2 10 3 11 4 13 5 12 6 14 7 15 8 16 9 7 12 6 13 5 14
REMARK SMILES IDX 4 15 3 16 2 17 1 18
REMARK H PARENT 15 10 15 11
REMARK Flexibility Score: inf
ROOT
ATOM      1  C   UNL     1       1.231   0.845   0.226  1.00  0.00     0.083 C 
ENDROOT
BRANCH   1   2
ATOM      2  C   UNL     1       1.972   2.151   0.314  1.00  0.00     0.165 C 
ATOM      3  O   UNL     1       1.556   3.037   1.046  1.00  0.00    -0.297 OA
BRANCH   2   4
ATOM      4  C   UNL     1       3.209   2.381  -0.510  1.00  0.00     0.224 C 
ATOM      5  C   UNL     1       4.492   1.775  -0.057  1.00  0.00     0.244 C 
ATOM      6  O   UNL     1       4.172   3.122   0.205  1.00  0.00    -0.351 OA
BRANCH   5   7
ATOM      7  C   UNL     1       4.495   0.956   1.200  1.00  0.00     0.249 C 
ATOM      8  N   UNL     1       4.237  -0.446   1.139  1.00  0.00    -0.367 N 
ATOM      9  O   UNL     1       4.757   1.495   2.309  1.00  0.00    -0.272 OA
ATOM     10  H   UNL     1       4.047  -0.910   0.223  1.00  0.00     0.159 HD
ATOM     11  H   UNL     1       4.236  -1.021   2.010  1.00  0.00     0.159 HD
ENDBRANCH   5   7
ENDBRANCH   2   4
ENDBRANCH   1   2
BRANCH   1  12
ATOM     12  C   UNL     1      -0.180   1.054  -0.334  1.00  0.00     0.035 C 
BRANCH  12  13
ATOM     13  C   UNL     1      -0.902  -0.256  -0.489  1.00  0.00    -0.031 C 
ATOM     14  C   UNL     1      -1.322  -0.957   0.576  1.00  0.00    -0.027 C 
BRANCH  14  15
ATOM     15  C   UNL     1      -2.072  -2.249   0.422  1.00  0.00     0.054 C 
BRANCH  15  16
ATOM     16  C   UNL     1      -3.547  -1.994   0.288  1.00  0.00    -0.027 C 
ATOM     17  C   UNL     1      -4.088  -1.584  -0.867  1.00  0.00    -0.034 C 
ATOM     18  C   UNL     1      -5.559  -1.333  -0.982  1.00  0.00     0.035 C 
ENDBRANCH  15  16
ENDBRANCH  14  15
ENDBRANCH  12  13
ENDBRANCH   1  12
TORSDOF 7
