REMARK SMILES O=C(O)c1cc(=O)c2c(OCC(O)COc3cccc4oc(C(=O)O)cc(=O)c34)cccc2o1
REMARK SMILES IDX 12 1 13 2 11 4 10 5 9 6 30 7 8 8 31 9 33 10 6 11 32 12 34 13
REMARK SMILES IDX 7 14 5 15 4 16 2 17 1 18 3 19 14 21 15 22 16 23 17 24 29 25
REMARK SMILES IDX 18 26 20 27 27 28 19 29 21 30 28 31 26 32 22 33 23 34 24 35
REMARK SMILES IDX 25 36
REMARK H PARENT 13 3 3 20 25 37
REMARK Flexibility Score: inf
ROOT
ATOM      1  C   UNL     1       0.018  -1.629   1.086  1.00  0.00     0.189 C 
ENDROOT
BRANCH   1   2
ATOM      2  O   UNL     1       0.173  -0.449   1.831  1.00  0.00    -0.386 OA
ATOM      3  H   UNL     1       0.033  -0.690   2.784  1.00  0.00     0.211 HD
ENDBRANCH   1   2
BRANCH   1   4
ATOM      4  C   UNL     1       1.279  -2.505   1.189  1.00  0.00     0.264 C 
BRANCH   4   5
ATOM      5  O   UNL     1       2.409  -1.882   0.571  1.00  0.00    -0.490 OA
BRANCH   5   6
ATOM      6  C   UNL     1       3.184  -0.836   1.105  1.00  0.00     0.134 A 
ATOM      7  C   UNL     1       3.144  -0.514   2.477  1.00  0.00     0.047 A 
ATOM      8  C   UNL     1       4.040  -0.096   0.249  1.00  0.00     0.107 A 
ATOM      9  C   UNL     1       3.924   0.523   2.989  1.00  0.00     0.008 A 
ATOM     10  C   UNL     1       4.825   0.954   0.787  1.00  0.00     0.142 A 
ATOM     11  C   UNL     1       4.149  -0.346  -1.136  1.00  0.00     0.197 A 
ATOM     12  C   UNL     1       4.760   1.255   2.149  1.00  0.00     0.048 A 
ATOM     13  O   UNL     1       5.632   1.665   0.006  1.00  0.00    -0.449 OA
ATOM     14  O   UNL     1       3.482  -1.258  -1.696  1.00  0.00    -0.289 OA
ATOM     15  C   UNL     1       5.011   0.430  -1.911  1.00  0.00     0.107 A 
ATOM     16  C   UNL     1       5.755   1.448  -1.300  1.00  0.00     0.215 A 
BRANCH  16  17
ATOM     17  C   UNL     1       6.677   2.293  -2.077  1.00  0.00     0.371 C 
ATOM     18  O   UNL     1       6.821   2.119  -3.317  1.00  0.00    -0.243 OA
BRANCH  17  19
ATOM     19  O   UNL     1       7.398   3.295  -1.434  1.00  0.00    -0.475 OA
ATOM     20  H   UNL     1       8.038   3.887  -1.949  1.00  0.00     0.297 HD
ENDBRANCH  17  19
ENDBRANCH  16  17
ENDBRANCH   5   6
ENDBRANCH   4   5
ENDBRANCH   1   4
BRANCH   1  21
ATOM     21  C   UNL     1      -0.288  -1.267  -0.375  1.00  0.00     0.264 C 
BRANCH  21  22
ATOM     22  O   UNL     1      -1.499  -0.516  -0.468  1.00  0.00    -0.490 OA
BRANCH  22  23
ATOM     23  C   UNL     1      -2.804  -1.027  -0.337  1.00  0.00     0.134 A 
ATOM     24  C   UNL     1      -3.048  -2.413  -0.246  1.00  0.00     0.047 A 
ATOM     25  C   UNL     1      -3.905  -0.132  -0.306  1.00  0.00     0.107 A 
ATOM     26  C   UNL     1      -4.348  -2.902  -0.121  1.00  0.00     0.008 A 
ATOM     27  C   UNL     1      -5.219  -0.647  -0.178  1.00  0.00     0.142 A 
ATOM     28  C   UNL     1      -3.761   1.270  -0.392  1.00  0.00     0.197 A 
ATOM     29  C   UNL     1      -5.429  -2.024  -0.086  1.00  0.00     0.048 A 
ATOM     30  O   UNL     1      -6.267   0.170  -0.144  1.00  0.00    -0.449 OA
ATOM     31  O   UNL     1      -2.628   1.811  -0.505  1.00  0.00    -0.289 OA
ATOM     32  C   UNL     1      -4.895   2.083  -0.352  1.00  0.00     0.107 A 
ATOM     33  C   UNL     1      -6.159   1.493  -0.225  1.00  0.00     0.215 A 
BRANCH  33  34
ATOM     34  C   UNL     1      -7.378   2.317  -0.179  1.00  0.00     0.371 C 
ATOM     35  O   UNL     1      -8.503   1.762  -0.064  1.00  0.00    -0.243 OA
BRANCH  34  36
ATOM     36  O   UNL     1      -7.299   3.704  -0.260  1.00  0.00    -0.475 OA
ATOM     37  H   UNL     1      -8.136   4.275  -0.229  1.00  0.00     0.297 HD
ENDBRANCH  34  36
ENDBRANCH  33  34
ENDBRANCH  22  23
ENDBRANCH  21  22
ENDBRANCH   1  21
TORSDOF 11
