REMARK SMILES CCN(CC)CCNC(=O)c1c(C)[nH]c(/C=C2\C(=O)Nc3ccc(F)cc32)c1C
REMARK SMILES IDX 7 1 6 2 3 3 2 4 1 5 4 6 5 7 8 8 9 9 10 11 11 12 12 13 28 14
REMARK SMILES IDX 13 15 14 16 15 17 29 18 16 20 17 21 18 22 27 23 19 24 20 25
REMARK SMILES IDX 21 26 26 27 22 29 24 30 23 31 25 32
REMARK H PARENT 8 10 14 19 20 28
REMARK Flexibility Score: inf
ROOT
ATOM      1  C   UNL     1      -3.493  -0.150  -0.768  1.00  0.00     0.131 C 
ENDROOT
BRANCH   1   2
ATOM      2  C   UNL     1      -4.187   0.506   0.444  1.00  0.00     0.105 C 
BRANCH   2   3
ATOM      3  N   UNL     1      -5.645   0.740   0.280  1.00  0.00    -0.302 NA
BRANCH   3   4
ATOM      4  C   UNL     1      -6.101   1.244  -1.034  1.00  0.00     0.081 C 
ATOM      5  C   UNL     1      -5.616   2.673  -1.269  1.00  0.00     0.021 C 
ENDBRANCH   3   4
BRANCH   3   6
ATOM      6  C   UNL     1      -6.513  -0.307   0.862  1.00  0.00     0.081 C 
ATOM      7  C   UNL     1      -6.425  -1.652   0.138  1.00  0.00     0.021 C 
ENDBRANCH   3   6
ENDBRANCH   2   3
ENDBRANCH   1   2
BRANCH   1   8
ATOM      8  N   UNL     1      -2.148  -0.586  -0.402  1.00  0.00    -0.351 N 
ATOM      9  C   UNL     1      -1.076   0.339  -0.170  1.00  0.00     0.253 C 
ATOM     10  H   UNL     1      -1.951  -1.611  -0.381  1.00  0.00     0.163 HD
ATOM     11  O   UNL     1      -1.205   1.546  -0.510  1.00  0.00    -0.269 OA
BRANCH   9  12
ATOM     12  C   UNL     1       0.193  -0.114   0.438  1.00  0.00     0.063 A 
ATOM     13  C   UNL     1       0.359  -1.081   1.424  1.00  0.00     0.025 A 
ATOM     14  C   UNL     1       1.461   0.394   0.178  1.00  0.00    -0.013 A 
ATOM     15  C   UNL     1      -0.718  -1.881   2.089  1.00  0.00     0.065 C 
ATOM     16  N   UNL     1       1.661  -1.191   1.751  1.00  0.00    -0.358 N 
ATOM     17  C   UNL     1       2.339  -0.311   0.992  1.00  0.00     0.043 A 
ATOM     18  C   UNL     1       1.790   1.545  -0.727  1.00  0.00     0.047 C 
ATOM     19  H   UNL     1       2.068  -1.831   2.470  1.00  0.00     0.166 HD
BRANCH  17  20
ATOM     20  C   UNL     1       3.790  -0.104   1.116  1.00  0.00     0.041 C 
ATOM     21  C   UNL     1       4.648  -0.285   0.103  1.00  0.00     0.051 C 
ATOM     22  C   UNL     1       4.391  -0.774  -1.261  1.00  0.00     0.256 C 
ATOM     23  C   UNL     1       6.099  -0.088   0.137  1.00  0.00     0.014 A 
ATOM     24  O   UNL     1       3.276  -1.137  -1.719  1.00  0.00    -0.269 OA
ATOM     25  N   UNL     1       5.601  -0.846  -2.010  1.00  0.00    -0.321 N 
ATOM     26  C   UNL     1       6.613  -0.419  -1.104  1.00  0.00     0.049 A 
ATOM     27  C   UNL     1       6.930   0.355   1.169  1.00  0.00     0.050 A 
ATOM     28  H   UNL     1       5.723  -1.174  -2.993  1.00  0.00     0.170 HD
ATOM     29  C   UNL     1       7.977  -0.328  -1.374  1.00  0.00     0.030 A 
ATOM     30  C   UNL     1       8.309   0.454   0.917  1.00  0.00     0.123 A 
ATOM     31  C   UNL     1       8.830   0.114  -0.348  1.00  0.00     0.041 A 
ATOM     32  F   UNL     1       9.144   0.881   1.897  1.00  0.00    -0.207 F 
ENDBRANCH  17  20
ENDBRANCH   9  12
ENDBRANCH   1   8
TORSDOF 7
