REMARK SMILES CCN(CC)CCNC(=O)c1ccc(N)cc1
REMARK SMILES IDX 7 1 6 2 3 3 2 4 1 5 4 6 5 7 8 8 9 9 10 11 11 12 12 13 17 14
REMARK SMILES IDX 13 15 16 16 14 17 15 18
REMARK H PARENT 8 10 15 19 15 20
REMARK Flexibility Score: inf
ROOT
ATOM      1  C   UNL     1      -1.024  -1.234   1.264  1.00  0.00     0.131 C 
ENDROOT
BRANCH   1   2
ATOM      2  C   UNL     1      -2.199  -0.249   1.286  1.00  0.00     0.105 C 
BRANCH   2   3
ATOM      3  N   UNL     1      -2.561   0.154  -0.097  1.00  0.00    -0.302 NA
BRANCH   3   4
ATOM      4  C   UNL     1      -2.535   1.624  -0.289  1.00  0.00     0.081 C 
ATOM      5  C   UNL     1      -3.663   2.364   0.445  1.00  0.00     0.021 C 
ENDBRANCH   3   4
BRANCH   3   6
ATOM      6  C   UNL     1      -3.830  -0.444  -0.571  1.00  0.00     0.081 C 
ATOM      7  C   UNL     1      -3.663  -1.929  -0.882  1.00  0.00     0.021 C 
ENDBRANCH   3   6
ENDBRANCH   2   3
ENDBRANCH   1   2
BRANCH   1   8
ATOM      8  N   UNL     1       0.193  -0.610   0.744  1.00  0.00    -0.351 N 
ATOM      9  C   UNL     1       1.414  -1.354   0.616  1.00  0.00     0.251 C 
ATOM     10  H   UNL     1       0.164   0.382   0.421  1.00  0.00     0.163 HD
ATOM     11  O   UNL     1       1.406  -2.601   0.813  1.00  0.00    -0.269 OA
BRANCH   9  12
ATOM     12  C   UNL     1       2.684  -0.688   0.236  1.00  0.00     0.039 A 
ATOM     13  C   UNL     1       3.710  -1.430  -0.378  1.00  0.00     0.016 A 
ATOM     14  C   UNL     1       2.898   0.677   0.500  1.00  0.00     0.016 A 
ATOM     15  C   UNL     1       4.913  -0.816  -0.737  1.00  0.00     0.026 A 
ATOM     16  C   UNL     1       4.103   1.289   0.140  1.00  0.00     0.026 A 
ATOM     17  C   UNL     1       5.114   0.546  -0.483  1.00  0.00     0.031 A 
BRANCH  17  18
ATOM     18  N   UNL     1       6.346   1.174  -0.850  1.00  0.00    -0.399 N 
ATOM     19  H   UNL     1       6.506   2.189  -0.662  1.00  0.00     0.156 HD
ATOM     20  H   UNL     1       7.107   0.628  -1.313  1.00  0.00     0.156 HD
ENDBRANCH  17  18
ENDBRANCH   9  12
ENDBRANCH   1   8
TORSDOF 7
