REMARK SMILES CC(=O)OCC(=O)[C@@]1(O)CC[C@H]2[C@@H]3CCC4=CC(=O)CC[C@]4(C)[C@H]3C(=O)C[C@@]21C
REMARK SMILES IDX 5 1 6 2 7 3 8 4 12 5 11 6 28 7 13 8 10 9 29 10 27 11 24 12
REMARK SMILES IDX 14 13 25 14 22 15 15 16 26 17 16 18 21 19 23 20 17 21 20 22
REMARK SMILES IDX 18 23 19 24 9 25 4 27 2 28 1 29 3 30
REMARK H PARENT 9 26
REMARK Flexibility Score: inf
ROOT
ATOM      1  C   UNL     1       4.128   0.250  -1.259  1.00  0.00     0.311 C 
ENDROOT
BRANCH   1   2
ATOM      2  C   UNL     1       3.689  -0.255   0.094  1.00  0.00     0.202 C 
ATOM      3  O   UNL     1       4.460  -0.106   1.031  1.00  0.00    -0.293 OA
BRANCH   2   4
ATOM      4  C   UNL     1       2.319  -0.924   0.320  1.00  0.00     0.132 C 
ATOM      5  C   UNL     1      -0.006  -0.784   0.894  1.00  0.00     0.003 C 
ATOM      6  C   UNL     1       0.669  -1.283   2.163  1.00  0.00     0.008 C 
ATOM      7  C   UNL     1       1.084   0.028   0.155  1.00  0.00     0.014 C 
ATOM      8  C   UNL     1      -1.350  -0.025   1.034  1.00  0.00     0.004 C 
ATOM      9  C   UNL     1       2.152  -1.435   1.787  1.00  0.00     0.044 C 
ATOM     10  C   UNL     1       1.379   1.407   0.836  1.00  0.00     0.016 C 
ATOM     11  C   UNL     1       0.576   0.295  -1.288  1.00  0.00     0.086 C 
ATOM     12  C   UNL     1      -1.889   0.296  -0.408  1.00  0.00     0.069 C 
ATOM     13  C   UNL     1      -2.380  -0.843   1.845  1.00  0.00     0.009 C 
ATOM     14  C   UNL     1      -0.782   0.963  -1.225  1.00  0.00     0.137 C 
ATOM     15  C   UNL     1      -3.293   1.014  -0.383  1.00  0.00    -0.001 C 
ATOM     16  C   UNL     1      -3.729  -0.120   1.917  1.00  0.00     0.032 C 
ATOM     17  O   UNL     1      -0.947   2.033  -1.789  1.00  0.00    -0.299 OA
ATOM     18  C   UNL     1      -4.202   0.152   0.511  1.00  0.00    -0.060 C 
ATOM     19  C   UNL     1      -3.909   1.172  -1.818  1.00  0.00     0.020 C 
ATOM     20  C   UNL     1      -3.202   2.439   0.226  1.00  0.00     0.017 C 
ATOM     21  C   UNL     1      -5.203  -0.603   0.018  1.00  0.00     0.047 C 
ATOM     22  C   UNL     1      -4.481  -0.124  -2.387  1.00  0.00     0.081 C 
ATOM     23  C   UNL     1      -5.461  -0.700  -1.421  1.00  0.00     0.155 C 
ATOM     24  O   UNL     1      -6.460  -1.341  -1.840  1.00  0.00    -0.295 OA
BRANCH   4  25
ATOM     25  O   UNL     1       2.202  -2.061  -0.511  1.00  0.00    -0.381 OA
ATOM     26  H   UNL     1       2.370  -1.801  -1.450  1.00  0.00     0.212 HD
ENDBRANCH   4  25
ENDBRANCH   2   4
ENDBRANCH   1   2
BRANCH   1  27
ATOM     27  O   UNL     1       5.287  -0.455  -1.701  1.00  0.00    -0.458 OA
BRANCH  27  28
ATOM     28  C   UNL     1       6.585  -0.156  -1.270  1.00  0.00     0.303 C 
ATOM     29  C   UNL     1       7.729  -0.966  -1.779  1.00  0.00     0.139 C 
ATOM     30  O   UNL     1       6.803   0.820  -0.501  1.00  0.00    -0.253 OA
ENDBRANCH  27  28
ENDBRANCH   1  27
TORSDOF 5
