REMARK SMILES Cc1ccc(S(=O)(=O)NC(=O)NN2C[C@H]3CCC[C@H]3C2)cc1
REMARK SMILES IDX 12 1 10 2 11 3 9 4 13 7 19 8 18 9 15 10 20 11 17 12 16 13
REMARK SMILES IDX 14 14 6 15 7 16 8 17 5 18 4 19 21 20 3 21 22 22 2 23 1 24
REMARK H PARENT 12 5 9 6
REMARK Flexibility Score: inf
ROOT
ATOM      1  N   UNL     1       1.078  -0.277  -0.983  1.00  0.00    -0.270 N 
ATOM      2  C   UNL     1      -0.250  -0.710  -1.285  1.00  0.00     0.343 C 
ATOM      3  O   UNL     1      -0.659  -1.825  -0.862  1.00  0.00    -0.246 OA
ATOM      4  N   UNL     1      -1.114   0.130  -2.059  1.00  0.00    -0.230 N 
ATOM      5  H   UNL     1       1.394   0.666  -1.310  1.00  0.00     0.187 HD
ATOM      6  H   UNL     1      -0.766   1.058  -2.386  1.00  0.00     0.185 HD
ENDROOT
BRANCH   1   7
ATOM      7  N   UNL     1       1.938  -1.096  -0.223  1.00  0.00    -0.219 NA
ATOM      8  C   UNL     1       3.872  -0.332   1.033  1.00  0.00     0.009 C 
ATOM      9  C   UNL     1       4.448   1.019   0.615  1.00  0.00     0.005 C 
ATOM     10  C   UNL     1       4.330  -1.306  -0.020  1.00  0.00     0.009 C 
ATOM     11  C   UNL     1       2.345  -0.385   0.999  1.00  0.00     0.112 C 
ATOM     12  C   UNL     1       5.748   0.699  -0.106  1.00  0.00     0.001 C 
ATOM     13  C   UNL     1       5.613  -0.729  -0.631  1.00  0.00     0.005 C 
ATOM     14  C   UNL     1       3.155  -1.379  -0.993  1.00  0.00     0.112 C 
ENDBRANCH   1   7
BRANCH   4  15
ATOM     15  S   UNL     1      -2.743  -0.319  -2.452  1.00  0.00     0.265 S 
ATOM     16  O   UNL     1      -2.819  -1.798  -2.706  1.00  0.00    -0.201 OA
ATOM     17  O   UNL     1      -3.144   0.410  -3.704  1.00  0.00    -0.201 OA
BRANCH  15  18
ATOM     18  C   UNL     1      -3.845   0.118  -1.149  1.00  0.00     0.087 A 
ATOM     19  C   UNL     1      -3.365   0.365   0.145  1.00  0.00     0.022 A 
ATOM     20  C   UNL     1      -5.221   0.195  -1.402  1.00  0.00     0.022 A 
ATOM     21  C   UNL     1      -4.253   0.699   1.173  1.00  0.00     0.005 A 
ATOM     22  C   UNL     1      -6.109   0.530  -0.375  1.00  0.00     0.005 A 
ATOM     23  C   UNL     1      -5.629   0.798   0.916  1.00  0.00    -0.051 A 
ATOM     24  C   UNL     1      -6.586   1.117   2.026  1.00  0.00     0.044 C 
ENDBRANCH  15  18
ENDBRANCH   4  15
TORSDOF 3
