REMARK SMILES CC(=O)O[C@H]1C[C@@H]2CC[C@@H]3[C@H](CC[C@@]4(C)[C@H]3C[C@H](N3CC[N+](C)(C)CC3)[C@@H]4OC(C)=O)[C@@]2(C)C[C@@H]1N1CC[N+](C)(C)CC1
REMARK SMILES IDX 16 1 17 2 18 3 27 4 14 5 15 6 13 7 12 8 11 9 10 10 9 11 8 12
REMARK SMILES IDX 7 13 6 14 5 15 35 16 34 17 32 18 33 19 19 20 20 21 26 22
REMARK SMILES IDX 21 23 25 24 22 25 23 26 24 27 28 28 29 29 30 30 31 31 36 32
REMARK SMILES IDX 37 33 43 34 38 35 42 36 39 37 40 38 41 39 4 40 2 41 1 42
REMARK SMILES IDX 3 43
REMARK H PARENT
REMARK Flexibility Score: inf
ROOT
ATOM      1  C   UNL     1       2.138  -0.411  -0.160  1.00  0.00     0.004 C 
ATOM      2  C   UNL     1       3.418  -1.075  -0.625  1.00  0.00     0.027 C 
ATOM      3  C   UNL     1       4.517  -0.091  -0.150  1.00  0.00     0.099 C 
ATOM      4  C   UNL     1       3.865   0.716   1.030  1.00  0.00     0.199 C 
ATOM      5  C   UNL     1       2.466   0.082   1.254  1.00  0.00     0.009 C 
ATOM      6  C   UNL     1       2.578  -1.063   2.316  1.00  0.00     0.016 C 
ATOM      7  C   UNL     1       1.360   1.079   1.674  1.00  0.00     0.011 C 
ATOM      8  C   UNL     1      -0.042   0.426   1.599  1.00  0.00     0.005 C 
ATOM      9  C   UNL     1      -0.338  -0.212   0.204  1.00  0.00    -0.001 C 
ATOM     10  C   UNL     1       0.806  -1.188  -0.235  1.00  0.00    -0.004 C 
ATOM     11  C   UNL     1       0.554  -1.715  -1.659  1.00  0.00     0.004 C 
ATOM     12  C   UNL     1      -0.813  -2.394  -1.762  1.00  0.00     0.004 C 
ATOM     13  C   UNL     1      -1.938  -1.419  -1.369  1.00  0.00    -0.001 C 
ATOM     14  C   UNL     1      -3.328  -2.051  -1.625  1.00  0.00     0.051 C 
ATOM     15  C   UNL     1      -4.496  -1.292  -0.948  1.00  0.00     0.194 C 
ATOM     16  C   UNL     1      -4.117   0.166  -0.617  1.00  0.00     0.098 C 
ATOM     17  C   UNL     1      -2.868   0.256   0.316  1.00  0.00     0.030 C 
ATOM     18  C   UNL     1      -1.776  -0.854   0.084  1.00  0.00    -0.025 C 
ATOM     19  C   UNL     1      -1.958  -1.981   1.147  1.00  0.00     0.012 C 
ENDROOT
BRANCH   3  20
ATOM     20  N   UNL     1       5.807  -0.753   0.215  1.00  0.00    -0.286 NA
ATOM     21  C   UNL     1       6.283  -1.731  -0.794  1.00  0.00     0.146 C 
ATOM     22  C   UNL     1       6.865   0.248   0.542  1.00  0.00     0.146 C 
ATOM     23  C   UNL     1       6.851  -1.033  -2.042  1.00  0.00     0.279 C 
ATOM     24  C   UNL     1       8.175   0.096  -0.265  1.00  0.00     0.279 C 
ATOM     25  N   UNL     1       7.940  -0.044  -1.732  1.00  0.00    -0.326 N 
ATOM     26  C   UNL     1       7.600   1.282  -2.308  1.00  0.00     0.334 C 
ATOM     27  C   UNL     1       9.209  -0.492  -2.359  1.00  0.00     0.334 C 
ENDBRANCH   3  20
BRANCH   4  28
ATOM     28  O   UNL     1       4.663   0.686   2.217  1.00  0.00    -0.460 OA
BRANCH  28  29
ATOM     29  C   UNL     1       4.615   1.666   3.215  1.00  0.00     0.302 C 
ATOM     30  C   UNL     1       5.442   1.498   4.444  1.00  0.00     0.139 C 
ATOM     31  O   UNL     1       3.868   2.677   3.098  1.00  0.00    -0.253 OA
ENDBRANCH  28  29
ENDBRANCH   4  28
BRANCH  16  32
ATOM     32  N   UNL     1      -5.288   0.943  -0.123  1.00  0.00    -0.286 NA
ATOM     33  C   UNL     1      -5.988   0.362   1.047  1.00  0.00     0.146 C 
ATOM     34  C   UNL     1      -4.989   2.372   0.068  1.00  0.00     0.146 C 
ATOM     35  C   UNL     1      -6.925   1.382   1.733  1.00  0.00     0.279 C 
ATOM     36  C   UNL     1      -6.297   3.182   0.172  1.00  0.00     0.279 C 
ATOM     37  N   UNL     1      -7.430   2.421   0.793  1.00  0.00    -0.326 N 
ATOM     38  C   UNL     1      -8.276   1.798  -0.261  1.00  0.00     0.334 C 
ATOM     39  C   UNL     1      -8.286   3.364   1.556  1.00  0.00     0.334 C 
ENDBRANCH  16  32
BRANCH  15  40
ATOM     40  O   UNL     1      -5.641  -1.290  -1.803  1.00  0.00    -0.461 OA
BRANCH  40  41
ATOM     41  C   UNL     1      -6.423  -2.424  -2.048  1.00  0.00     0.302 C 
ATOM     42  C   UNL     1      -7.596  -2.317  -2.963  1.00  0.00     0.139 C 
ATOM     43  O   UNL     1      -6.134  -3.534  -1.525  1.00  0.00    -0.253 OA
ENDBRANCH  40  41
ENDBRANCH  15  40
TORSDOF 6
