REMARK SMILES CC(CN(C)C)CN1c2ccccc2Sc2ccccc21
REMARK SMILES IDX 1 1 2 2 3 3 4 4 5 5 6 6 7 7 8 8 9 9 21 10 10 11 14 12 16 13
REMARK SMILES IDX 20 14 11 15 13 16 15 17 17 18 19 19 12 20 18 21
REMARK H PARENT
REMARK Flexibility Score: inf
ROOT
ATOM      1  C   UNL     1       0.695   0.454  -2.030  1.00  0.00     0.011 C 
ATOM      2  C   UNL     1       1.163  -0.523  -0.941  1.00  0.00     0.020 C 
ENDROOT
BRANCH   2   3
ATOM      3  C   UNL     1       2.699  -0.663  -0.941  1.00  0.00     0.089 C 
BRANCH   3   4
ATOM      4  N   UNL     1       3.349   0.636  -0.637  1.00  0.00    -0.309 NA
ATOM      5  C   UNL     1       4.195   1.089  -1.752  1.00  0.00     0.104 C 
ATOM      6  C   UNL     1       4.146   0.562   0.598  1.00  0.00     0.104 C 
ENDBRANCH   3   4
ENDBRANCH   2   3
BRANCH   2   7
ATOM      7  C   UNL     1       0.641  -0.101   0.452  1.00  0.00     0.127 C 
BRANCH   7   8
ATOM      8  N   UNL     1      -0.831  -0.123   0.511  1.00  0.00    -0.339 N 
ATOM      9  C   UNL     1      -1.588  -1.317   0.207  1.00  0.00     0.055 A 
ATOM     10  C   UNL     1      -1.574   1.029   0.966  1.00  0.00     0.055 A 
ATOM     11  C   UNL     1      -1.152  -2.586   0.629  1.00  0.00     0.027 A 
ATOM     12  C   UNL     1      -2.855  -1.192  -0.395  1.00  0.00     0.036 A 
ATOM     13  C   UNL     1      -2.838   1.297   0.406  1.00  0.00     0.036 A 
ATOM     14  C   UNL     1      -1.140   1.784   2.071  1.00  0.00     0.027 A 
ATOM     15  C   UNL     1      -1.974  -3.705   0.459  1.00  0.00     0.002 A 
ATOM     16  C   UNL     1      -3.683  -2.309  -0.539  1.00  0.00     0.017 A 
ATOM     17  S   UNL     1      -3.362   0.399  -1.057  1.00  0.00    -0.086 SA
ATOM     18  C   UNL     1      -3.657   2.290   0.952  1.00  0.00     0.017 A 
ATOM     19  C   UNL     1      -1.953   2.793   2.597  1.00  0.00     0.002 A 
ATOM     20  C   UNL     1      -3.241  -3.565  -0.114  1.00  0.00     0.001 A 
ATOM     21  C   UNL     1      -3.212   3.041   2.043  1.00  0.00     0.001 A 
ENDBRANCH   7   8
ENDBRANCH   2   7
TORSDOF 4
