REMARK SMILES CC1=NS(=O)(=O)c2cc(Cl)ccc2N1
REMARK SMILES IDX 1 1 2 2 3 3 4 4 5 5 6 6 7 7 13 8 14 9 12 10 11 11 9 12 10 13
REMARK SMILES IDX 8 14
REMARK H PARENT 14 15
REMARK Flexibility Score: inf
ROOT
ATOM      1  C   UNL     1       3.551  -0.086  -0.185  1.00  0.00     0.088 C 
ATOM      2  C   UNL     1       2.100   0.269  -0.099  1.00  0.00     0.117 C 
ATOM      3  N   UNL     1       1.772   1.518   0.039  1.00  0.00    -0.146 NA
ATOM      4  S   UNL     1       0.141   2.060   0.177  1.00  0.00     0.286 S 
ATOM      5  O   UNL     1      -0.178   2.989  -0.960  1.00  0.00    -0.199 OA
ATOM      6  O   UNL     1      -0.047   2.759   1.493  1.00  0.00    -0.199 OA
ATOM      7  C   UNL     1      -0.887   0.656   0.100  1.00  0.00     0.114 A 
ATOM      8  C   UNL     1      -0.308  -0.615  -0.038  1.00  0.00     0.060 A 
ATOM      9  N   UNL     1       1.120  -0.789  -0.121  1.00  0.00    -0.342 N 
ATOM     10  C   UNL     1      -1.144  -1.742  -0.096  1.00  0.00     0.029 A 
ATOM     11  C   UNL     1      -2.533  -1.600  -0.017  1.00  0.00     0.023 A 
ATOM     12  C   UNL     1      -3.101  -0.330   0.120  1.00  0.00     0.042 A 
ATOM     13  Cl  UNL     1      -4.843  -0.153   0.219  1.00  0.00    -0.084 Cl
ATOM     14  C   UNL     1      -2.278   0.798   0.179  1.00  0.00     0.045 A 
ATOM     15  H   UNL     1       1.483  -1.765  -0.210  1.00  0.00     0.168 HD
ENDROOT
TORSDOF 0
