REMARK SMILES O=C1CN2CCOC2(c2ccccc2Cl)c2cc(Cl)ccc2N1
REMARK SMILES IDX 19 1 18 2 17 3 16 4 22 5 21 6 20 7 8 8 4 9 7 10 5 11 6 12
REMARK SMILES IDX 9 13 10 14 14 15 11 16 13 17 15 18 12 19 3 20 23 22 2 23
REMARK SMILES IDX 1 25
REMARK H PARENT 23 24
REMARK Flexibility Score: 90.00
ROOT
ATOM      1  Cl  UNL     1      -0.703  -4.563   1.646  1.00  0.00    -0.084 Cl
ATOM      2  C   UNL     1      -1.281  -2.932   1.352  1.00  0.00     0.041 A 
ATOM      3  C   UNL     1      -0.444  -1.994   0.743  1.00  0.00     0.031 A 
ATOM      4  C   UNL     1      -0.880  -0.667   0.497  1.00  0.00     0.029 A 
ATOM      5  C   UNL     1      -2.213  -0.334   0.871  1.00  0.00     0.049 A 
ATOM      6  C   UNL     1      -3.028  -1.280   1.510  1.00  0.00     0.028 A 
ATOM      7  C   UNL     1      -2.566  -2.571   1.746  1.00  0.00     0.022 A 
ENDROOT
BRANCH   4   8
ATOM      8  C   UNL     1       0.084   0.430  -0.032  1.00  0.00     0.178 C 
ATOM      9  N   UNL     1      -0.282   0.976  -1.365  1.00  0.00    -0.256 NA
ATOM     10  O   UNL     1       0.048   1.507   0.888  1.00  0.00    -0.350 OA
ATOM     11  C   UNL     1       0.198   2.353  -1.314  1.00  0.00     0.117 C 
ATOM     12  C   UNL     1       0.278   2.688   0.158  1.00  0.00     0.179 C 
BRANCH   8  13
ATOM     13  C   UNL     1       1.536  -0.095  -0.114  1.00  0.00     0.022 A 
ATOM     14  C   UNL     1       2.428   0.143   0.956  1.00  0.00     0.010 A 
ATOM     15  C   UNL     1       2.002  -0.873  -1.212  1.00  0.00     0.048 A 
ATOM     16  C   UNL     1       3.746  -0.316   0.910  1.00  0.00     0.001 A 
ATOM     17  C   UNL     1       3.327  -1.323  -1.242  1.00  0.00     0.021 A 
ATOM     18  Cl  UNL     1       0.953  -1.392  -2.530  1.00  0.00    -0.084 Cl
ATOM     19  C   UNL     1       4.197  -1.038  -0.191  1.00  0.00     0.002 A 
ENDBRANCH   8  13
BRANCH   9  20
ATOM     20  C   UNL     1      -1.713   0.913  -1.742  1.00  0.00     0.188 CG0
ATOM     21  G   UNL     1      -2.606   1.552  -0.715  1.00  0.00     0.000 G0
ENDBRANCH   9  20
ENDBRANCH   4   8
BRANCH   5  22
ATOM     22  N   UNL     1      -2.779   0.948   0.568  1.00  0.00    -0.325 N 
ATOM     23  C   UNL     1      -2.606   1.552  -0.715  1.00  0.00     0.238 CG0
ATOM     24  H   UNL     1      -3.500   1.349   1.210  1.00  0.00     0.169 HD
ATOM     25  O   UNL     1      -3.195   2.634  -0.981  1.00  0.00    -0.273 OA
ATOM     26  G   UNL     1      -1.713   0.913  -1.742  1.00  0.00     0.000 G0
ENDBRANCH   5  22
TORSDOF 1
