REMARK SMILES CC(=O)O[C@H]1C(=O)[C@@]2(C)[C@H]([C@H](OC(=O)c3ccccc3)[C@]3(O)C[C@H](OC(=O)[C@H](O)[C@@H](NC(=O)c4ccccc4)c4ccccc4)C(C)=C1C3(C)C)[C@]1(OC(C)=O)CO[C@@H]1C[C@@H]2O
REMARK SMILES IDX 25 1 24 2 21 3 23 4 49 5 48 6 50 7 51 8 46 9 47 10 11 11
REMARK SMILES IDX 10 12 8 13 52 14 9 15 61 16 59 17 57 18 60 19 58 20 6 21
REMARK SMILES IDX 7 22 53 24 54 25 55 26 56 27 62 28 12 30 13 31 14 32 15 33
REMARK SMILES IDX 16 34 20 35 17 36 19 37 18 38 22 39 5 41 4 43 2 44 1 45 3 46
REMARK SMILES IDX 26 47 27 48 28 49 29 50 30 52 31 53 32 54 33 56 34 57 35 58
REMARK SMILES IDX 39 59 36 60 38 61 37 62 40 63 41 64 45 65 42 66 44 67 43 68
REMARK H PARENT 62 29 22 40 29 51 31 55
REMARK Flexibility Score: 100.00
ROOT
ATOM      1  O   UNL     1       1.431   0.498   0.515  1.00  0.00    -0.456 OA
ENDROOT
BRANCH   1   2
ATOM      2  C   UNL     1       0.727  -0.749   0.565  1.00  0.00     0.205 C 
ATOM      3  C   UNL     1      -1.588  -1.698   1.495  1.00  0.00     0.115 C 
ATOM      4  C   UNL     1      -0.356  -0.721   1.686  1.00  0.00     0.090 C 
ATOM      5  C   UNL     1      -1.278  -2.791   0.392  1.00  0.00     0.023 C 
ATOM      6  C   UNL     1      -0.890  -2.001  -0.878  1.00  0.00    -0.011 C 
ATOM      7  C   UNL     1      -2.464  -3.793   0.212  1.00  0.00     0.019 C 
ATOM      8  C   UNL     1      -0.080  -3.727   0.785  1.00  0.00     0.019 C 
ATOM      9  C   UNL     1       0.141  -1.096  -0.795  1.00  0.00    -0.029 C 
ATOM     10  C   UNL     1       0.745  -0.469  -2.036  1.00  0.00     0.043 C 
BRANCH   3  11
ATOM     11  C   UNL     1      -2.915  -0.860   1.182  1.00  0.00     0.218 C 
BRANCH  11  12
ATOM     12  C   UNL     1      -2.912   0.157  -0.050  1.00  0.00     0.098 C 
ATOM     13  C   UNL     1      -3.682  -0.324  -1.366  1.00  0.00     0.067 C 
ATOM     14  C   UNL     1      -3.251   1.643   0.376  1.00  0.00     0.169 C 
ATOM     15  C   UNL     1      -5.224  -0.453  -1.120  1.00  0.00     0.023 C 
ATOM     16  C   UNL     1      -3.431   0.744  -2.473  1.00  0.00     0.131 C 
ATOM     17  C   UNL     1      -3.783   2.622  -0.674  1.00  0.00     0.168 C 
ATOM     18  C   UNL     1      -4.610   1.892   1.020  1.00  0.00     0.212 C 
ATOM     19  C   UNL     1      -4.004   2.135  -2.124  1.00  0.00     0.069 C 
ATOM     20  O   UNL     1      -5.022   2.760  -0.009  1.00  0.00    -0.370 OA
BRANCH  13  21
ATOM     21  C   UNL     1      -3.183  -1.696  -1.923  1.00  0.00     0.186 CG0
ATOM     22  O   UNL     1      -4.017  -2.498  -2.322  1.00  0.00    -0.294 OA
ATOM     23  G   UNL     1      -1.730  -2.094  -2.144  1.00  0.00     0.000 G0
ENDBRANCH  13  21
BRANCH  14  24
ATOM     24  O   UNL     1      -2.231   2.236   1.193  1.00  0.00    -0.454 OA
BRANCH  24  25
ATOM     25  C   UNL     1      -1.023   2.746   0.709  1.00  0.00     0.303 C 
ATOM     26  C   UNL     1      -0.112   3.425   1.667  1.00  0.00     0.139 C 
ATOM     27  O   UNL     1      -0.705   2.645  -0.506  1.00  0.00    -0.253 OA
ENDBRANCH  24  25
ENDBRANCH  14  24
BRANCH  16  28
ATOM     28  O   UNL     1      -3.977   0.312  -3.697  1.00  0.00    -0.392 OA
ATOM     29  H   UNL     1      -3.616   0.908  -4.406  1.00  0.00     0.210 HD
ENDBRANCH  16  28
ENDBRANCH  11  12
BRANCH  11  30
ATOM     30  O   UNL     1      -3.309  -0.187   2.387  1.00  0.00    -0.455 OA
BRANCH  30  31
ATOM     31  C   UNL     1      -4.240  -0.707   3.305  1.00  0.00     0.338 C 
ATOM     32  O   UNL     1      -4.708  -1.875   3.146  1.00  0.00    -0.246 OA
BRANCH  31  33
ATOM     33  C   UNL     1      -4.688   0.123   4.446  1.00  0.00     0.060 A 
ATOM     34  C   UNL     1      -5.766  -0.283   5.252  1.00  0.00     0.015 A 
ATOM     35  C   UNL     1      -4.042   1.343   4.732  1.00  0.00     0.015 A 
ATOM     36  C   UNL     1      -6.201   0.521   6.311  1.00  0.00     0.001 A 
ATOM     37  C   UNL     1      -4.480   2.142   5.795  1.00  0.00     0.001 A 
ATOM     38  C   UNL     1      -5.561   1.734   6.578  1.00  0.00     0.000 A 
ENDBRANCH  31  33
ENDBRANCH  30  31
ENDBRANCH  11  30
ENDBRANCH   3  11
BRANCH   3  39
ATOM     39  O   UNL     1      -1.840  -2.354   2.726  1.00  0.00    -0.385 OA
ATOM     40  H   UNL     1      -1.034  -2.854   3.011  1.00  0.00     0.211 HD
ENDBRANCH   3  39
BRANCH   6  41
ATOM     41  C   UNL     1      -1.730  -2.094  -2.144  1.00  0.00     0.270 CG0
ATOM     42  G   UNL     1      -3.183  -1.696  -1.923  1.00  0.00     0.000 G0
BRANCH  41  43
ATOM     43  O   UNL     1      -1.644  -3.444  -2.621  1.00  0.00    -0.450 OA
BRANCH  43  44
ATOM     44  C   UNL     1      -1.695  -3.804  -3.971  1.00  0.00     0.303 C 
ATOM     45  C   UNL     1      -1.758  -5.247  -4.338  1.00  0.00     0.139 C 
ATOM     46  O   UNL     1      -1.609  -2.930  -4.885  1.00  0.00    -0.253 OA
ENDBRANCH  43  44
ENDBRANCH  41  43
ENDBRANCH   6  41
ENDBRANCH   1   2
BRANCH   1  47
ATOM     47  C   UNL     1       2.480   0.808   1.390  1.00  0.00     0.338 C 
ATOM     48  O   UNL     1       2.507   0.322   2.553  1.00  0.00    -0.249 OA
BRANCH  47  49
ATOM     49  C   UNL     1       3.656   1.609   0.899  1.00  0.00     0.251 C 
BRANCH  49  50
ATOM     50  O   UNL     1       3.191   2.836   0.396  1.00  0.00    -0.379 OA
ATOM     51  H   UNL     1       3.365   3.530   1.088  1.00  0.00     0.211 HD
ENDBRANCH  49  50
BRANCH  49  52
ATOM     52  C   UNL     1       4.407   0.866  -0.230  1.00  0.00     0.153 C 
BRANCH  52  53
ATOM     53  N   UNL     1       5.562   1.654  -0.677  1.00  0.00    -0.342 N 
ATOM     54  C   UNL     1       5.597   2.336  -1.945  1.00  0.00     0.251 C 
ATOM     55  H   UNL     1       6.342   1.812  -0.001  1.00  0.00     0.164 HD
ATOM     56  O   UNL     1       4.527   2.497  -2.594  1.00  0.00    -0.269 OA
BRANCH  54  57
ATOM     57  C   UNL     1       6.864   2.877  -2.498  1.00  0.00     0.039 A 
ATOM     58  C   UNL     1       8.119   2.410  -2.058  1.00  0.00     0.014 A 
ATOM     59  C   UNL     1       6.826   3.847  -3.521  1.00  0.00     0.014 A 
ATOM     60  C   UNL     1       9.301   2.918  -2.608  1.00  0.00     0.001 A 
ATOM     61  C   UNL     1       8.011   4.344  -4.076  1.00  0.00     0.001 A 
ATOM     62  C   UNL     1       9.246   3.886  -3.612  1.00  0.00     0.000 A 
ENDBRANCH  54  57
ENDBRANCH  52  53
BRANCH  52  63
ATOM     63  C   UNL     1       4.867  -0.520   0.198  1.00  0.00    -0.022 A 
ATOM     64  C   UNL     1       5.814  -0.688   1.228  1.00  0.00     0.006 A 
ATOM     65  C   UNL     1       4.311  -1.662  -0.410  1.00  0.00     0.006 A 
ATOM     66  C   UNL     1       6.189  -1.972   1.640  1.00  0.00     0.000 A 
ATOM     67  C   UNL     1       4.686  -2.941   0.007  1.00  0.00     0.000 A 
ATOM     68  C   UNL     1       5.619  -3.097   1.037  1.00  0.00     0.000 A 
ENDBRANCH  52  63
ENDBRANCH  49  52
ENDBRANCH  47  49
ENDBRANCH   1  47
TORSDOF 17
