REMARK SMILES CC(C)(C)NCC(O)COc1cccc2c1C[C@H](O)[C@H](O)C2
REMARK SMILES IDX 9 1 7 2 6 3 5 4 2 6 1 7 3 8 4 9 8 10 10 12 11 13 12 14 16 15
REMARK SMILES IDX 13 16 15 17 17 18 14 19 22 20 18 21 20 22 19 23 21 25
REMARK H PARENT 5 5 8 11 19 24 21 26
REMARK Flexibility Score: inf
ROOT
ATOM      1  C   UNL     1       0.380   2.439   1.836  1.00  0.00     0.262 C 
ENDROOT
BRANCH   1   2
ATOM      2  C   UNL     1       1.547   2.391   0.830  1.00  0.00     0.165 C 
BRANCH   2   3
ATOM      3  C   UNL     1       2.045   0.959   0.564  1.00  0.00     0.116 C 
BRANCH   3   4
ATOM      4  N   UNL     1       3.174   0.981  -0.383  1.00  0.00    -0.309 NA
ATOM      5  H   UNL     1       4.016   1.316   0.146  1.00  0.00     0.123 HD
BRANCH   4   6
ATOM      6  C   UNL     1       3.494  -0.325  -1.014  1.00  0.00     0.010 C 
ATOM      7  C   UNL     1       4.811  -0.165  -1.803  1.00  0.00     0.027 C 
ATOM      8  C   UNL     1       2.389  -0.728  -2.016  1.00  0.00     0.027 C 
ATOM      9  C   UNL     1       3.687  -1.442   0.037  1.00  0.00     0.027 C 
ENDBRANCH   4   6
ENDBRANCH   3   4
ENDBRANCH   2   3
BRANCH   2  10
ATOM     10  O   UNL     1       2.599   3.207   1.280  1.00  0.00    -0.388 OA
ATOM     11  H   UNL     1       2.925   2.829   2.138  1.00  0.00     0.211 HD
ENDBRANCH   2  10
ENDBRANCH   1   2
BRANCH   1  12
ATOM     12  O   UNL     1      -0.802   1.839   1.298  1.00  0.00    -0.491 OA
BRANCH  12  13
ATOM     13  C   UNL     1      -1.165   0.480   1.369  1.00  0.00     0.123 A 
ATOM     14  C   UNL     1      -0.510  -0.431   2.222  1.00  0.00     0.047 A 
ATOM     15  C   UNL     1      -2.223   0.024   0.551  1.00  0.00     0.000 A 
ATOM     16  C   UNL     1      -0.879  -1.774   2.238  1.00  0.00     0.004 A 
ATOM     17  C   UNL     1      -2.568  -1.351   0.550  1.00  0.00    -0.038 A 
ATOM     18  C   UNL     1      -2.880   0.993  -0.412  1.00  0.00     0.074 C 
ATOM     19  C   UNL     1      -1.901  -2.232   1.411  1.00  0.00     0.004 A 
ATOM     20  C   UNL     1      -3.712  -1.885  -0.281  1.00  0.00     0.070 C 
ATOM     21  C   UNL     1      -4.226   0.491  -0.956  1.00  0.00     0.148 C 
ATOM     22  C   UNL     1      -4.086  -0.959  -1.445  1.00  0.00     0.147 C 
BRANCH  21  23
ATOM     23  O   UNL     1      -5.217   0.571   0.037  1.00  0.00    -0.390 OA
ATOM     24  H   UNL     1      -5.472   1.528   0.112  1.00  0.00     0.211 HD
ENDBRANCH  21  23
BRANCH  22  25
ATOM     25  O   UNL     1      -5.293  -1.398  -2.012  1.00  0.00    -0.390 OA
ATOM     26  H   UNL     1      -5.363  -0.969  -2.905  1.00  0.00     0.211 HD
ENDBRANCH  22  25
ENDBRANCH  12  13
ENDBRANCH   1  12
TORSDOF 9
