REMARK SMILES CCC(=O)O[C@H]1CC[C@H]2[C@@H]3CCC4=CC(=O)CC[C@]4(C)[C@H]3CC[C@]12C
REMARK SMILES IDX 3 1 4 2 5 3 6 4 9 5 8 6 24 7 10 8 7 9 25 10 23 11 21 12
REMARK SMILES IDX 11 13 22 14 19 15 12 16 13 17 18 18 20 19 14 20 17 21 15 22
REMARK SMILES IDX 16 23 2 24 1 25
REMARK H PARENT
REMARK Flexibility Score: inf
ROOT
ATOM      1  C   UNL     1       4.955   1.167   0.395  1.00  0.00     0.305 C 
ATOM      2  O   UNL     1       5.238   1.473  -0.796  1.00  0.00    -0.252 OA
ENDROOT
BRANCH   1   3
ATOM      3  O   UNL     1       3.669   0.735   0.737  1.00  0.00    -0.462 OA
BRANCH   3   4
ATOM      4  C   UNL     1       2.616   0.577  -0.216  1.00  0.00     0.182 C 
ATOM      5  C   UNL     1       0.513  -0.370  -0.727  1.00  0.00     0.002 C 
ATOM      6  C   UNL     1       1.518  -1.316  -1.372  1.00  0.00     0.008 C 
ATOM      7  C   UNL     1       1.269   0.249   0.456  1.00  0.00     0.008 C 
ATOM      8  C   UNL     1      -0.875  -0.905  -0.322  1.00  0.00    -0.003 C 
ATOM      9  C   UNL     1       2.873  -0.617  -1.165  1.00  0.00     0.046 C 
ATOM     10  C   UNL     1       1.506  -0.735   1.648  1.00  0.00     0.015 C 
ATOM     11  C   UNL     1       0.475   1.482   0.938  1.00  0.00     0.011 C 
ATOM     12  C   UNL     1      -1.726   0.307   0.217  1.00  0.00     0.002 C 
ATOM     13  C   UNL     1      -1.579  -1.594  -1.516  1.00  0.00     0.008 C 
ATOM     14  C   UNL     1      -0.975   1.102   1.332  1.00  0.00     0.005 C 
ATOM     15  C   UNL     1      -3.192  -0.130   0.598  1.00  0.00    -0.008 C 
ATOM     16  C   UNL     1      -3.001  -2.036  -1.152  1.00  0.00     0.032 C 
ATOM     17  C   UNL     1      -3.759  -0.836  -0.641  1.00  0.00    -0.060 C 
ATOM     18  C   UNL     1      -4.105   1.074   1.008  1.00  0.00     0.019 C 
ATOM     19  C   UNL     1      -3.206  -1.108   1.804  1.00  0.00     0.016 C 
ATOM     20  C   UNL     1      -4.639  -0.239  -1.469  1.00  0.00     0.047 C 
ATOM     21  C   UNL     1      -4.494   1.968  -0.167  1.00  0.00     0.081 C 
ATOM     22  C   UNL     1      -5.111   1.134  -1.241  1.00  0.00     0.155 C 
ATOM     23  O   UNL     1      -5.981   1.631  -2.003  1.00  0.00    -0.295 OA
ENDBRANCH   3   4
ENDBRANCH   1   3
BRANCH   1  24
ATOM     24  C   UNL     1       6.014   1.219   1.448  1.00  0.00     0.119 C 
ATOM     25  C   UNL     1       6.684  -0.142   1.597  1.00  0.00     0.016 C 
ENDBRANCH   1  24
TORSDOF 3
