REMARK SMILES CCn1cc(C(=O)O)c(=O)c2cc(F)c(N3CCNCC3)cc21
REMARK SMILES IDX 3 1 4 2 5 3 9 4 10 5 11 6 12 7 13 8 14 9 15 10 22 11 23 12
REMARK SMILES IDX 2 13 1 14 6 15 7 16 8 17 16 19 17 20 21 21 18 22 20 23 19 24
REMARK H PARENT 8 18 19 25
REMARK Flexibility Score: inf
ROOT
ATOM      1  N   UNL     1       2.213   0.859   0.578  1.00  0.00    -0.347 N 
ATOM      2  C   UNL     1       3.556   0.591   0.557  1.00  0.00     0.105 A 
ATOM      3  C   UNL     1       4.051  -0.690   0.278  1.00  0.00     0.124 A 
ATOM      4  C   UNL     1       3.133  -1.719   0.002  1.00  0.00     0.204 A 
ATOM      5  O   UNL     1       3.545  -2.887  -0.244  1.00  0.00    -0.288 OA
ATOM      6  C   UNL     1       1.754  -1.447  -0.005  1.00  0.00     0.050 A 
ATOM      7  C   UNL     1       0.824  -2.463  -0.296  1.00  0.00     0.055 A 
ATOM      8  C   UNL     1      -0.543  -2.194  -0.323  1.00  0.00     0.147 A 
ATOM      9  F   UNL     1      -1.410  -3.204  -0.581  1.00  0.00    -0.205 F 
ATOM     10  C   UNL     1      -1.011  -0.900  -0.064  1.00  0.00     0.075 A 
ATOM     11  C   UNL     1      -0.095   0.119   0.232  1.00  0.00     0.056 A 
ATOM     12  C   UNL     1       1.298  -0.132   0.277  1.00  0.00     0.054 A 
ENDROOT
BRANCH   1  13
ATOM     13  C   UNL     1       1.814   2.245   0.901  1.00  0.00     0.119 C 
ATOM     14  C   UNL     1       1.590   3.054  -0.374  1.00  0.00     0.027 C 
ENDBRANCH   1  13
BRANCH   3  15
ATOM     15  C   UNL     1       5.522  -0.918   0.283  1.00  0.00     0.341 C 
ATOM     16  O   UNL     1       6.003  -2.056   0.028  1.00  0.00    -0.246 OA
BRANCH  15  17
ATOM     17  O   UNL     1       6.392   0.130   0.572  1.00  0.00    -0.477 OA
ATOM     18  H   UNL     1       7.395  -0.012   0.578  1.00  0.00     0.297 HD
ENDBRANCH  15  17
ENDBRANCH   3  15
BRANCH  10  19
ATOM     19  N   UNL     1      -2.420  -0.608  -0.102  1.00  0.00    -0.367 N 
ATOM     20  C   UNL     1      -3.082  -0.116   1.112  1.00  0.00     0.132 C 
ATOM     21  C   UNL     1      -3.222  -0.990  -1.272  1.00  0.00     0.132 C 
ATOM     22  C   UNL     1      -4.557   0.177   0.843  1.00  0.00     0.102 C 
ATOM     23  C   UNL     1      -4.313   0.061  -1.580  1.00  0.00     0.102 C 
ATOM     24  N   UNL     1      -4.673   0.903  -0.423  1.00  0.00    -0.313 NA
ATOM     25  H   UNL     1      -5.668   1.208  -0.536  1.00  0.00     0.122 HD
ENDBRANCH  10  19
TORSDOF 4
