REMARK SMILES CC12CC3CC(C)(C1)CC(N)(C3)C2
REMARK SMILES IDX 1 1 2 2 3 3 4 4 5 5 6 6 7 7 8 8 9 9 10 10 12 11 13 12 11 13
REMARK H PARENT 11 14 11 15
REMARK Flexibility Score: inf
ROOT
ATOM      1  C   UNL     1      -2.473  -1.622  -0.387  1.00  0.00     0.011 C 
ATOM      2  C   UNL     1      -1.269  -0.715  -0.079  1.00  0.00    -0.030 C 
ATOM      3  C   UNL     1      -1.378  -0.165   1.367  1.00  0.00     0.010 C 
ATOM      4  C   UNL     1      -0.172   0.746   1.675  1.00  0.00    -0.008 C 
ATOM      5  C   UNL     1       1.134  -0.065   1.542  1.00  0.00     0.010 C 
ATOM      6  C   UNL     1       1.271  -0.616   0.098  1.00  0.00    -0.030 C 
ATOM      7  C   UNL     1       2.572  -1.425  -0.033  1.00  0.00     0.011 C 
ATOM      8  C   UNL     1       0.050  -1.522  -0.214  1.00  0.00     0.013 C 
ATOM      9  C   UNL     1       1.285   0.574  -0.898  1.00  0.00     0.029 C 
ATOM     10  C   UNL     1      -0.026   1.397  -0.768  1.00  0.00     0.017 C 
ATOM     11  C   UNL     1      -0.151   1.927   0.683  1.00  0.00     0.025 C 
ATOM     12  C   UNL     1      -1.236   0.477  -1.072  1.00  0.00     0.029 C 
ENDROOT
BRANCH  10  13
ATOM     13  N   UNL     1      -0.022   2.528  -1.703  1.00  0.00    -0.325 NA
ATOM     14  H   UNL     1       0.088   2.168  -2.679  1.00  0.00     0.119 HD
ATOM     15  H   UNL     1       0.809   3.133  -1.510  1.00  0.00     0.119 HD
ENDBRANCH  10  13
TORSDOF 1
