REMARK SMILES CC[C@@H](C(N)=O)N1CCCC1=O
REMARK SMILES IDX 3 1 2 2 1 3 7 4 8 5 11 6 9 7 10 8 12 9 4 10 5 11 6 12
REMARK H PARENT 5 13 5 14
REMARK Flexibility Score: inf
ROOT
ATOM      1  C   UNL     1       0.837  -0.109   0.247  1.00  0.00     0.173 C 
ENDROOT
BRANCH   1   2
ATOM      2  C   UNL     1       1.449  -1.176  -0.685  1.00  0.00     0.032 C 
ATOM      3  C   UNL     1       2.901  -1.492  -0.328  1.00  0.00     0.006 C 
ENDBRANCH   1   2
BRANCH   1   4
ATOM      4  N   UNL     1      -0.613  -0.019   0.042  1.00  0.00    -0.331 N 
ATOM      5  C   UNL     1      -1.593  -0.295   1.077  1.00  0.00     0.121 C 
ATOM      6  C   UNL     1      -1.276   0.385  -1.144  1.00  0.00     0.223 C 
ATOM      7  C   UNL     1      -2.976  -0.088   0.430  1.00  0.00     0.031 C 
ATOM      8  C   UNL     1      -2.745   0.400  -1.008  1.00  0.00     0.102 C 
ATOM      9  O   UNL     1      -0.672   0.706  -2.202  1.00  0.00    -0.275 OA
ENDBRANCH   1   4
BRANCH   1  10
ATOM     10  C   UNL     1       1.464   1.254   0.084  1.00  0.00     0.240 C 
ATOM     11  N   UNL     1       1.532   2.146   1.197  1.00  0.00    -0.368 N 
ATOM     12  O   UNL     1       1.882   1.638  -1.042  1.00  0.00    -0.273 OA
ATOM     13  H   UNL     1       1.950   3.096   1.086  1.00  0.00     0.159 HD
ATOM     14  H   UNL     1       1.158   1.864   2.130  1.00  0.00     0.159 HD
ENDBRANCH   1  10
TORSDOF 3
