REMARK SMILES C[C@]12C=CC(=O)N[C@@H]1CC[C@@H]1[C@@H]2CC[C@]2(C)[C@@H](C(=O)Nc3cc(C(F)(F)F)ccc3C(F)(F)F)CC[C@@H]12
REMARK SMILES IDX 21 1 22 2 23 3 28 4 29 5 30 6 20 7 18 8 19 9 17 11 35 12
REMARK SMILES IDX 15 13 36 14 37 15 14 16 16 17 11 18 13 19 10 20 12 21 9 22
REMARK SMILES IDX 2 23 8 24 3 25 1 26 7 27 4 28 5 29 6 31 31 32 32 33 33 34
REMARK SMILES IDX 34 35 24 36 25 37 26 38 27 39
REMARK H PARENT 20 10 7 30
REMARK Flexibility Score: inf
ROOT
ATOM      1  C   UNL     1       4.689   0.041   0.070  1.00  0.00     0.054 A 
ATOM      2  C   UNL     1       4.740  -1.318   0.429  1.00  0.00     0.039 A 
ATOM      3  C   UNL     1       5.923  -2.059   0.292  1.00  0.00     0.058 A 
ATOM      4  C   UNL     1       7.049  -1.443  -0.274  1.00  0.00     0.014 A 
ATOM      5  C   UNL     1       7.009  -0.100  -0.648  1.00  0.00     0.016 A 
ATOM      6  C   UNL     1       5.842   0.665  -0.467  1.00  0.00     0.079 A 
ENDROOT
BRANCH   1   7
ATOM      7  N   UNL     1       3.450   0.761   0.185  1.00  0.00    -0.325 N 
ATOM      8  C   UNL     1       2.603   0.678   1.346  1.00  0.00     0.228 C 
ATOM      9  O   UNL     1       3.027   0.105   2.387  1.00  0.00    -0.274 OA
ATOM     10  H   UNL     1       3.173   1.371  -0.612  1.00  0.00     0.169 HD
BRANCH   8  11
ATOM     11  C   UNL     1       1.198   1.250   1.365  1.00  0.00     0.085 C 
ATOM     12  C   UNL     1       1.055   2.688   0.808  1.00  0.00     0.014 C 
ATOM     13  C   UNL     1       0.120   0.426   0.620  1.00  0.00    -0.018 C 
ATOM     14  C   UNL     1      -0.337   2.760   0.152  1.00  0.00     0.005 C 
ATOM     15  C   UNL     1      -1.015   1.461   0.574  1.00  0.00    -0.001 C 
ATOM     16  C   UNL     1      -0.396  -0.808   1.393  1.00  0.00     0.008 C 
ATOM     17  C   UNL     1       0.631  -0.004  -0.793  1.00  0.00     0.012 C 
ATOM     18  C   UNL     1      -2.248   0.957  -0.205  1.00  0.00    -0.003 C 
ATOM     19  C   UNL     1      -1.676  -1.389   0.741  1.00  0.00     0.005 C 
ATOM     20  C   UNL     1      -3.328   2.054  -0.303  1.00  0.00     0.006 C 
ATOM     21  C   UNL     1      -2.798  -0.319   0.532  1.00  0.00     0.004 C 
ATOM     22  C   UNL     1      -4.593   1.530  -0.992  1.00  0.00     0.026 C 
ATOM     23  C   UNL     1      -4.105  -0.866  -0.152  1.00  0.00     0.009 C 
ATOM     24  C   UNL     1      -5.134   0.310  -0.234  1.00  0.00     0.092 C 
ATOM     25  C   UNL     1      -4.766  -1.969   0.677  1.00  0.00    -0.012 C 
ATOM     26  C   UNL     1      -3.813  -1.462  -1.558  1.00  0.00     0.018 C 
ATOM     27  N   UNL     1      -6.401  -0.167  -0.793  1.00  0.00    -0.349 N 
ATOM     28  C   UNL     1      -6.073  -2.250   0.551  1.00  0.00     0.067 C 
ATOM     29  C   UNL     1      -6.930  -1.398  -0.291  1.00  0.00     0.243 C 
ATOM     30  H   UNL     1      -6.928   0.385  -1.508  1.00  0.00     0.164 HD
ATOM     31  O   UNL     1      -8.109  -1.747  -0.566  1.00  0.00    -0.270 OA
ENDBRANCH   8  11
ENDBRANCH   1   7
BRANCH   6  32
ATOM     32  C   UNL     1       5.821   2.122  -0.885  1.00  0.00     0.418 C 
ATOM     33  F   UNL     1       7.100   2.611  -1.086  1.00  0.00    -0.166 F 
ATOM     34  F   UNL     1       5.221   2.892   0.095  1.00  0.00    -0.166 F 
ATOM     35  F   UNL     1       5.110   2.250  -2.065  1.00  0.00    -0.166 F 
ENDBRANCH   6  32
BRANCH   3  36
ATOM     36  C   UNL     1       5.947  -3.527   0.639  1.00  0.00     0.416 C 
ATOM     37  F   UNL     1       5.534  -4.261  -0.457  1.00  0.00    -0.166 F 
ATOM     38  F   UNL     1       5.101  -3.789   1.703  1.00  0.00    -0.166 F 
ATOM     39  F   UNL     1       7.225  -3.926   0.995  1.00  0.00    -0.166 F 
ENDBRANCH   3  36
TORSDOF 4
