REMARK SMILES C[C@@H]1O[C@@H](OC[C@H]2O[C@@H](Oc3c(-c4ccc(O)c(O)c4)oc4cc(O)cc(O)c4c3=O)[C@H](O)[C@@H](O)[C@@H]2O)[C@H](O)[C@H](O)[C@H]1O
REMARK SMILES IDX 7 1 8 2 9 3 32 4 34 5 36 6 6 7 5 8 4 9 1 10 2 11 3 12 42 13
REMARK SMILES IDX 40 14 38 15 43 16 41 18 39 20 37 22 10 24 11 25 12 26 30 27
REMARK SMILES IDX 21 28 29 29 31 30 22 31 27 32 23 33 26 34 24 35 13 36 20 37
REMARK SMILES IDX 14 38 18 39 15 40 16 41 19 42 17 44 28 46 25 48 35 50 33 52
REMARK H PARENT 43 17 41 19 39 21 37 23 19 43 17 45 28 47 25 49 35 51 33 53
REMARK Flexibility Score: inf
ROOT
ATOM      1  C   UNL     1       1.577  -0.998   1.182  1.00  0.00     0.180 C 
ATOM      2  O   UNL     1       0.498  -1.494   0.406  1.00  0.00    -0.332 OA
ATOM      3  C   UNL     1      -0.714  -0.860   0.769  1.00  0.00     0.339 C 
ATOM      4  C   UNL     1      -1.102  -1.242   2.205  1.00  0.00     0.214 C 
ATOM      5  C   UNL     1       0.020  -0.822   3.170  1.00  0.00     0.180 C 
ATOM      6  C   UNL     1       1.377  -1.359   2.676  1.00  0.00     0.177 C 
ENDROOT
BRANCH   1   7
ATOM      7  C   UNL     1       2.875  -1.609   0.624  1.00  0.00     0.198 C 
BRANCH   7   8
ATOM      8  O   UNL     1       4.016  -1.065   1.264  1.00  0.00    -0.347 OA
BRANCH   8   9
ATOM      9  C   UNL     1       4.548   0.022   0.529  1.00  0.00     0.281 C 
ATOM     10  C   UNL     1       4.771   1.186  -2.277  1.00  0.00     0.041 C 
ATOM     11  C   UNL     1       5.840   0.533  -1.383  1.00  0.00     0.150 C 
ATOM     12  O   UNL     1       5.309  -0.492  -0.553  1.00  0.00    -0.344 OA
ATOM     13  C   UNL     1       6.744   1.537  -0.616  1.00  0.00     0.174 C 
ATOM     14  C   UNL     1       6.143   2.001   0.732  1.00  0.00     0.179 C 
ATOM     15  C   UNL     1       5.453   0.835   1.473  1.00  0.00     0.202 C 
BRANCH  13  16
ATOM     16  O   UNL     1       7.982   0.915  -0.375  1.00  0.00    -0.388 OA
ATOM     17  H   UNL     1       8.649   1.637  -0.232  1.00  0.00     0.211 HD
ENDBRANCH  13  16
BRANCH  14  18
ATOM     18  O   UNL     1       5.310   3.123   0.565  1.00  0.00    -0.387 OA
ATOM     19  H   UNL     1       4.441   2.825   0.202  1.00  0.00     0.211 HD
ENDBRANCH  14  18
BRANCH  15  20
ATOM     20  O   UNL     1       4.751   1.293   2.604  1.00  0.00    -0.385 OA
ATOM     21  H   UNL     1       3.930   1.757   2.291  1.00  0.00     0.211 HD
ENDBRANCH  15  20
ENDBRANCH   8   9
ENDBRANCH   7   8
ENDBRANCH   1   7
BRANCH   6  22
ATOM     22  O   UNL     1       2.410  -0.796   3.444  1.00  0.00    -0.387 OA
ATOM     23  H   UNL     1       2.429  -1.286   4.307  1.00  0.00     0.211 HD
ENDBRANCH   6  22
BRANCH   3  24
ATOM     24  O   UNL     1      -1.742  -1.314  -0.109  1.00  0.00    -0.454 OA
BRANCH  24  25
ATOM     25  C   UNL     1      -2.531  -0.457  -0.888  1.00  0.00     0.214 A 
ATOM     26  C   UNL     1      -3.933  -0.530  -0.804  1.00  0.00     0.180 A 
ATOM     27  C   UNL     1      -1.951   0.489  -1.749  1.00  0.00     0.239 A 
ATOM     28  O   UNL     1      -4.684   0.327  -1.491  1.00  0.00    -0.452 OA
ATOM     29  C   UNL     1      -2.779   1.374  -2.469  1.00  0.00     0.111 A 
ATOM     30  O   UNL     1      -0.696   0.525  -1.877  1.00  0.00    -0.285 OA
ATOM     31  C   UNL     1      -4.179   1.254  -2.297  1.00  0.00     0.146 A 
ATOM     32  C   UNL     1      -2.275   2.366  -3.344  1.00  0.00     0.134 A 
ATOM     33  C   UNL     1      -5.048   2.111  -2.978  1.00  0.00     0.094 A 
ATOM     34  C   UNL     1      -3.164   3.215  -4.020  1.00  0.00     0.093 A 
ATOM     35  C   UNL     1      -4.546   3.090  -3.837  1.00  0.00     0.123 A 
BRANCH  26  36
ATOM     36  C   UNL     1      -4.609  -1.513   0.073  1.00  0.00     0.025 A 
ATOM     37  C   UNL     1      -5.700  -1.107   0.857  1.00  0.00     0.062 A 
ATOM     38  C   UNL     1      -4.192  -2.855   0.122  1.00  0.00     0.016 A 
ATOM     39  C   UNL     1      -6.344  -2.014   1.706  1.00  0.00     0.158 A 
ATOM     40  C   UNL     1      -4.833  -3.762   0.969  1.00  0.00     0.051 A 
ATOM     41  C   UNL     1      -5.907  -3.347   1.767  1.00  0.00     0.157 A 
BRANCH  39  42
ATOM     42  O   UNL     1      -7.414  -1.571   2.483  1.00  0.00    -0.504 OA
ATOM     43  H   UNL     1      -7.912  -2.187   3.114  1.00  0.00     0.293 HD
ENDBRANCH  39  42
BRANCH  41  44
ATOM     44  O   UNL     1      -6.541  -4.254   2.615  1.00  0.00    -0.504 OA
ATOM     45  H   UNL     1      -6.243  -5.221   2.676  1.00  0.00     0.293 HD
ENDBRANCH  41  44
ENDBRANCH  26  36
BRANCH  32  46
ATOM     46  O   UNL     1      -0.901   2.517  -3.545  1.00  0.00    -0.507 OA
ATOM     47  H   UNL     1      -0.528   3.223  -4.168  1.00  0.00     0.293 HD
ENDBRANCH  32  46
BRANCH  35  48
ATOM     48  O   UNL     1      -5.430   3.935  -4.505  1.00  0.00    -0.508 OA
ATOM     49  H   UNL     1      -5.100   4.657  -5.135  1.00  0.00     0.293 HD
ENDBRANCH  35  48
ENDBRANCH  24  25
ENDBRANCH   3  24
BRANCH   5  50
ATOM     50  O   UNL     1      -0.238  -1.328   4.455  1.00  0.00    -0.387 OA
ATOM     51  H   UNL     1      -0.880  -0.706   4.888  1.00  0.00     0.211 HD
ENDBRANCH   5  50
BRANCH   4  52
ATOM     52  O   UNL     1      -2.300  -0.592   2.547  1.00  0.00    -0.384 OA
ATOM     53  H   UNL     1      -2.760  -1.163   3.216  1.00  0.00     0.211 HD
ENDBRANCH   4  52
TORSDOF 16
