REMARK SMILES O=C1CCc2ccc(OCCCCN3CCN(c4cccc(Cl)c4Cl)CC3)cc2N1
REMARK SMILES IDX 12 1 13 2 14 3 17 4 16 5 26 6 15 7 27 8 18 9 23 10 22 11
REMARK SMILES IDX 21 12 24 13 20 14 25 15 19 16 11 17 10 18 9 19 8 20 28 21
REMARK SMILES IDX 7 22 29 23 6 24 5 25 30 26 4 27 2 28 3 30 1 31
REMARK H PARENT 30 29
REMARK Flexibility Score: inf
ROOT
ATOM      1  C   UNL     1       0.360   2.085  -1.387  1.00  0.00     0.019 C 
ENDROOT
BRANCH   1   2
ATOM      2  C   UNL     1       1.751   1.827  -2.009  1.00  0.00     0.085 C 
BRANCH   2   3
ATOM      3  N   UNL     1       2.726   1.094  -1.168  1.00  0.00    -0.300 NA
ATOM      4  N   UNL     1       4.674  -0.155   0.147  1.00  0.00    -0.368 N 
ATOM      5  C   UNL     1       3.932   0.783   1.003  1.00  0.00     0.132 C 
ATOM      6  C   UNL     1       3.991  -0.956  -0.878  1.00  0.00     0.132 C 
ATOM      7  C   UNL     1       2.895   1.606   0.205  1.00  0.00     0.106 C 
ATOM      8  C   UNL     1       2.618  -0.371  -1.206  1.00  0.00     0.106 C 
BRANCH   4   9
ATOM      9  C   UNL     1       6.036  -0.467   0.471  1.00  0.00     0.057 A 
ATOM     10  Cl  UNL     1       9.732   1.174   0.045  1.00  0.00    -0.083 Cl
ATOM     11  C   UNL     1       8.403   0.099   0.458  1.00  0.00     0.061 A 
ATOM     12  C   UNL     1       8.687  -1.098   1.124  1.00  0.00     0.022 A 
ATOM     13  C   UNL     1       7.074   0.420   0.127  1.00  0.00     0.083 A 
ATOM     14  C   UNL     1       7.656  -1.977   1.462  1.00  0.00     0.004 A 
ATOM     15  Cl  UNL     1       6.705   1.912  -0.738  1.00  0.00    -0.080 Cl
ATOM     16  C   UNL     1       6.335  -1.664   1.136  1.00  0.00     0.027 A 
ENDBRANCH   4   9
ENDBRANCH   2   3
ENDBRANCH   1   2
BRANCH   1  17
ATOM     17  C   UNL     1      -0.427   0.807  -1.068  1.00  0.00     0.043 C 
BRANCH  17  18
ATOM     18  C   UNL     1      -1.907   1.109  -0.844  1.00  0.00     0.229 C 
BRANCH  18  19
ATOM     19  O   UNL     1      -2.588  -0.094  -0.499  1.00  0.00    -0.494 OA
BRANCH  19  20
ATOM     20  C   UNL     1      -3.960  -0.177  -0.218  1.00  0.00     0.121 A 
ATOM     21  C   UNL     1      -4.495  -1.426   0.117  1.00  0.00     0.072 A 
ATOM     22  C   UNL     1      -4.809   0.945  -0.264  1.00  0.00     0.047 A 
ATOM     23  C   UNL     1      -5.857  -1.563   0.415  1.00  0.00     0.048 A 
ATOM     24  C   UNL     1      -6.170   0.813   0.023  1.00  0.00     0.010 A 
ATOM     25  C   UNL     1      -6.700  -0.435   0.379  1.00  0.00    -0.024 A 
ATOM     26  N   UNL     1      -6.394  -2.846   0.767  1.00  0.00    -0.326 N 
ATOM     27  C   UNL     1      -8.185  -0.597   0.601  1.00  0.00     0.047 C 
ATOM     28  C   UNL     1      -7.722  -2.954   1.288  1.00  0.00     0.224 C 
ATOM     29  H   UNL     1      -5.811  -3.707   0.664  1.00  0.00     0.169 HD
ATOM     30  C   UNL     1      -8.498  -1.711   1.609  1.00  0.00     0.105 C 
ATOM     31  O   UNL     1      -8.212  -4.088   1.536  1.00  0.00    -0.275 OA
ENDBRANCH  19  20
ENDBRANCH  18  19
ENDBRANCH  17  18
ENDBRANCH   1  17
TORSDOF 7
