REMARK SMILES O=C1C(O)=C([C@H]2CC[C@H](c3ccc(Cl)cc3)CC2)C(=O)c2ccccc21
REMARK SMILES IDX 3 1 5 2 19 3 20 4 21 5 22 6 23 7 24 8 25 9 26 10 2 11 1 12
REMARK SMILES IDX 4 13 6 15 18 16 7 17 17 18 8 19 9 20 10 21 11 22 16 23 12 24
REMARK SMILES IDX 15 25 13 26 14 27
REMARK H PARENT 4 14
REMARK Flexibility Score: inf
ROOT
ATOM      1  C   UNL     1      -2.242  -1.166   0.622  1.00  0.00     0.171 C 
ATOM      2  C   UNL     1      -1.817   0.025   0.133  1.00  0.00     0.049 C 
ATOM      3  C   UNL     1      -2.823   1.068  -0.232  1.00  0.00     0.193 C 
ATOM      4  O   UNL     1      -2.444   2.181  -0.689  1.00  0.00    -0.289 OA
ATOM      5  C   UNL     1      -4.271   0.810  -0.064  1.00  0.00     0.034 A 
ATOM      6  C   UNL     1      -5.226   1.785  -0.404  1.00  0.00     0.013 A 
ATOM      7  C   UNL     1      -6.589   1.525  -0.239  1.00  0.00     0.001 A 
ATOM      8  C   UNL     1      -7.011   0.295   0.266  1.00  0.00     0.001 A 
ATOM      9  C   UNL     1      -6.071  -0.681   0.608  1.00  0.00     0.013 A 
ATOM     10  C   UNL     1      -4.697  -0.430   0.445  1.00  0.00     0.037 A 
ATOM     11  C   UNL     1      -3.687  -1.447   0.800  1.00  0.00     0.228 C 
ATOM     12  O   UNL     1      -4.053  -2.564   1.258  1.00  0.00    -0.285 OA
ENDROOT
BRANCH   1  13
ATOM     13  O   UNL     1      -1.320  -2.155   0.970  1.00  0.00    -0.504 OA
ATOM     14  H   UNL     1      -1.604  -3.055   1.338  1.00  0.00     0.293 HD
ENDBRANCH   1  13
BRANCH   2  15
ATOM     15  C   UNL     1      -0.329   0.337  -0.059  1.00  0.00     0.027 C 
ATOM     16  C   UNL     1       0.447   0.343   1.276  1.00  0.00     0.009 C 
ATOM     17  C   UNL     1       0.337  -0.593  -1.096  1.00  0.00     0.009 C 
ATOM     18  C   UNL     1       1.916   0.727   1.050  1.00  0.00     0.009 C 
ATOM     19  C   UNL     1       1.807  -0.205  -1.312  1.00  0.00     0.009 C 
ATOM     20  C   UNL     1       2.580  -0.213   0.023  1.00  0.00     0.019 C 
BRANCH  20  21
ATOM     21  C   UNL     1       4.039   0.147  -0.186  1.00  0.00    -0.045 A 
ATOM     22  C   UNL     1       5.046  -0.782   0.134  1.00  0.00     0.005 A 
ATOM     23  C   UNL     1       4.413   1.405  -0.700  1.00  0.00     0.005 A 
ATOM     24  C   UNL     1       6.393  -0.461  -0.055  1.00  0.00     0.021 A 
ATOM     25  C   UNL     1       5.762   1.721  -0.887  1.00  0.00     0.021 A 
ATOM     26  C   UNL     1       6.752   0.790  -0.565  1.00  0.00     0.041 A 
ATOM     27  Cl  UNL     1       8.444   1.189  -0.801  1.00  0.00    -0.084 Cl
ENDBRANCH  20  21
ENDBRANCH   2  15
TORSDOF 3
