REMARK SMILES CC[C@H](C)[C@@H]1NC(=O)[C@H](Cc2ccc(OC)cc2)NC(=O)CCCSC[C@@H](C(=O)N2CCC[C@H]2C(=O)N[C@@H](CC(C)C)C(=O)NCC(N)=O)NC(=O)[C@H](CC(N)=O)NC(=O)[C@H](CCC(N)=O)NC1=O
REMARK SMILES IDX 26 1 27 2 50 3 51 4 52 5 53 7 58 8 59 9 60 10 61 12 67 13
REMARK SMILES IDX 68 14 69 15 5 17 6 18 7 19 8 21 3 23 4 24 2 25 1 26 62 27
REMARK SMILES IDX 63 28 64 29 65 30 66 31 54 34 55 35 56 36 57 37 28 40 29 41
REMARK SMILES IDX 30 42 31 43 34 44 32 45 33 46 35 47 36 48 37 49 38 51 39 52
REMARK SMILES IDX 40 53 41 54 42 55 43 56 44 57 45 58 46 60 47 61 48 62 49 63
REMARK SMILES IDX 25 66 24 67 23 68 22 69 20 70 19 71 21 72 9 74 10 76 11 77
REMARK SMILES IDX 12 78 18 79 13 80 17 81 14 82 15 83 16 84
REMARK H PARENT 50 6 58 11 67 16 6 20 65 32 65 33 56 38 56 39 37 50 45 59
REMARK H PARENT 48 64 48 65 19 73
REMARK Flexibility Score: 60.00
ROOT
ATOM      1  C   UNL     1       0.810   1.181  -1.719  1.00  0.00     0.104 C 
ENDROOT
BRANCH   1   2
ATOM      2  C   UNL     1       1.599  -0.085  -1.324  1.00  0.00     0.181 C 
BRANCH   2   3
ATOM      3  N   UNL     1       1.352  -0.410   0.081  1.00  0.00    -0.342 N 
ATOM      4  C   UNL     1       0.252  -1.219   0.539  1.00  0.00     0.243 C 
ATOM      5  O   UNL     1      -0.419  -0.817   1.531  1.00  0.00    -0.273 OA
ATOM      6  H   UNL     1       1.771   0.236   0.789  1.00  0.00     0.164 HD
BRANCH   4   7
ATOM      7  C   UNL     1      -0.030  -2.603  -0.009  1.00  0.00     0.180 C 
BRANCH   7   8
ATOM      8  N   UNL     1      -0.536  -2.547  -1.385  1.00  0.00    -0.342 N 
ATOM      9  C   UNL     1      -1.864  -2.129  -1.724  1.00  0.00     0.243 C 
ATOM     10  O   UNL     1      -2.014  -1.286  -2.654  1.00  0.00    -0.273 OA
ATOM     11  H   UNL     1       0.108  -2.752  -2.182  1.00  0.00     0.164 HD
BRANCH   9  12
ATOM     12  C   UNL     1      -3.076  -2.715  -1.035  1.00  0.00     0.171 C 
BRANCH  12  13
ATOM     13  N   UNL     1      -4.304  -2.305  -1.733  1.00  0.00    -0.342 N 
ATOM     14  C   UNL     1      -5.351  -1.472  -1.204  1.00  0.00     0.243 C 
ATOM     15  O   UNL     1      -6.205  -1.012  -2.012  1.00  0.00    -0.273 OA
ATOM     16  H   UNL     1      -4.387  -2.558  -2.745  1.00  0.00     0.164 HD
BRANCH  14  17
ATOM     17  C   UNL     1      -5.467  -1.114   0.265  1.00  0.00     0.174 C 
BRANCH  17  18
ATOM     18  N   UNL     1      -6.478  -0.066   0.451  1.00  0.00    -0.342 N 
ATOM     19  C   UNL     1      -6.129   1.323   0.455  1.00  0.00     0.243 CG0
ATOM     20  H   UNL     1      -7.467  -0.289   0.201  1.00  0.00     0.164 HD
ATOM     21  O   UNL     1      -6.684   2.092  -0.376  1.00  0.00    -0.273 OA
ATOM     22  G   UNL     1      -5.175   1.885   1.484  1.00  0.00     0.000 G0
ENDBRANCH  17  18
BRANCH  17  23
ATOM     23  C   UNL     1      -5.763  -2.339   1.187  1.00  0.00     0.018 C 
ATOM     24  C   UNL     1      -5.546  -1.941   2.657  1.00  0.00     0.010 C 
BRANCH  23  25
ATOM     25  C   UNL     1      -7.174  -2.974   1.037  1.00  0.00     0.002 C 
ATOM     26  C   UNL     1      -7.422  -3.631  -0.321  1.00  0.00     0.004 C 
ENDBRANCH  23  25
ENDBRANCH  17  23
ENDBRANCH  14  17
ENDBRANCH  12  13
BRANCH  12  27
ATOM     27  C   UNL     1      -3.016  -4.259  -0.961  1.00  0.00     0.045 C 
BRANCH  27  28
ATOM     28  C   UNL     1      -2.882  -4.954  -2.326  1.00  0.00     0.102 C 
BRANCH  28  29
ATOM     29  C   UNL     1      -2.766  -6.437  -2.145  1.00  0.00     0.217 C 
ATOM     30  N   UNL     1      -3.935  -7.231  -1.943  1.00  0.00    -0.370 N 
ATOM     31  O   UNL     1      -1.627  -6.975  -2.108  1.00  0.00    -0.275 OA
ATOM     32  H   UNL     1      -3.852  -8.259  -1.780  1.00  0.00     0.159 HD
ATOM     33  H   UNL     1      -4.883  -6.791  -1.932  1.00  0.00     0.159 HD
ENDBRANCH  28  29
ENDBRANCH  27  28
ENDBRANCH  12  27
ENDBRANCH   9  12
ENDBRANCH   7   8
BRANCH   7  34
ATOM     34  C   UNL     1       1.234  -3.476   0.081  1.00  0.00     0.134 C 
BRANCH  34  35
ATOM     35  C   UNL     1       0.974  -4.877  -0.393  1.00  0.00     0.220 C 
ATOM     36  N   UNL     1       1.352  -5.279  -1.710  1.00  0.00    -0.370 N 
ATOM     37  O   UNL     1       0.389  -5.695   0.363  1.00  0.00    -0.275 OA
ATOM     38  H   UNL     1       1.843  -4.620  -2.355  1.00  0.00     0.159 HD
ATOM     39  H   UNL     1       1.159  -6.250  -2.040  1.00  0.00     0.159 HD
ENDBRANCH  34  35
ENDBRANCH   7  34
ENDBRANCH   4   7
ENDBRANCH   2   3
BRANCH   2  40
ATOM     40  C   UNL     1       3.085   0.020  -1.597  1.00  0.00     0.246 C 
ATOM     41  O   UNL     1       3.541   0.952  -2.315  1.00  0.00    -0.272 OA
BRANCH  40  42
ATOM     42  N   UNL     1       3.971  -1.026  -1.180  1.00  0.00    -0.329 N 
ATOM     43  C   UNL     1       4.365  -2.096  -2.081  1.00  0.00     0.120 C 
ATOM     44  C   UNL     1       4.600  -1.108   0.132  1.00  0.00     0.174 C 
ATOM     45  C   UNL     1       5.324  -2.967  -1.283  1.00  0.00     0.024 C 
ATOM     46  C   UNL     1       5.162  -2.536   0.174  1.00  0.00     0.037 C 
BRANCH  44  47
ATOM     47  C   UNL     1       5.631   0.000   0.271  1.00  0.00     0.243 C 
ATOM     48  O   UNL     1       5.258   1.185   0.068  1.00  0.00    -0.273 OA
ATOM     49  N   UNL     1       6.986  -0.252   0.679  1.00  0.00    -0.343 N 
ATOM     50  H   UNL     1       7.170  -0.930   1.449  1.00  0.00     0.164 HD
BRANCH  49  51
ATOM     51  C   UNL     1       8.145   0.395   0.056  1.00  0.00     0.171 C 
BRANCH  51  52
ATOM     52  C   UNL     1       8.052   0.318  -1.491  1.00  0.00     0.038 C 
BRANCH  52  53
ATOM     53  C   UNL     1       9.383   0.487  -2.266  1.00  0.00    -0.015 C 
ATOM     54  C   UNL     1      10.022   1.868  -2.077  1.00  0.00     0.007 C 
ATOM     55  C   UNL     1      10.391  -0.633  -1.966  1.00  0.00     0.007 C 
ENDBRANCH  52  53
ENDBRANCH  51  52
BRANCH  51  56
ATOM     56  C   UNL     1       8.289   1.809   0.565  1.00  0.00     0.243 C 
ATOM     57  O   UNL     1       7.516   2.712   0.141  1.00  0.00    -0.273 OA
ATOM     58  N   UNL     1       9.310   2.125   1.528  1.00  0.00    -0.345 N 
ATOM     59  H   UNL     1       9.955   1.370   1.853  1.00  0.00     0.164 HD
BRANCH  58  60
ATOM     60  C   UNL     1       9.548   3.483   2.014  1.00  0.00     0.215 C 
BRANCH  60  61
ATOM     61  C   UNL     1       9.502   3.516   3.511  1.00  0.00     0.236 C 
ATOM     62  N   UNL     1       8.356   3.030   4.208  1.00  0.00    -0.368 N 
ATOM     63  O   UNL     1      10.475   3.987   4.158  1.00  0.00    -0.273 OA
ATOM     64  H   UNL     1       7.629   2.480   3.705  1.00  0.00     0.159 HD
ATOM     65  H   UNL     1       8.281   3.144   5.243  1.00  0.00     0.159 HD
ENDBRANCH  60  61
ENDBRANCH  58  60
ENDBRANCH  51  56
ENDBRANCH  49  51
ENDBRANCH  44  47
ENDBRANCH  40  42
ENDBRANCH   2  40
ENDBRANCH   1   2
BRANCH   1  66
ATOM     66  S   UNL     1       1.429   2.684  -0.864  1.00  0.00    -0.159 SA
BRANCH  66  67
ATOM     67  C   UNL     1       0.089   2.838   0.372  1.00  0.00     0.070 C 
BRANCH  67  68
ATOM     68  C   UNL     1      -1.070   3.668  -0.197  1.00  0.00     0.021 C 
BRANCH  68  69
ATOM     69  C   UNL     1      -2.046   4.131   0.892  1.00  0.00     0.101 C 
BRANCH  69  70
ATOM     70  C   UNL     1      -2.894   3.004   1.403  1.00  0.00     0.220 C 
ATOM     71  N   UNL     1      -4.200   2.779   0.851  1.00  0.00    -0.344 N 
ATOM     72  O   UNL     1      -2.436   2.237   2.296  1.00  0.00    -0.275 OA
ATOM     73  H   UNL     1      -4.503   3.377   0.048  1.00  0.00     0.164 HD
BRANCH  71  74
ATOM     74  C   UNL     1      -5.175   1.885   1.484  1.00  0.00     0.175 CG0
ATOM     75  G   UNL     1      -6.129   1.323   0.455  1.00  0.00     0.000 G0
BRANCH  74  76
ATOM     76  C   UNL     1      -5.926   2.608   2.622  1.00  0.00     0.070 C 
BRANCH  76  77
ATOM     77  C   UNL     1      -6.775   3.762   2.142  1.00  0.00    -0.045 A 
ATOM     78  C   UNL     1      -8.146   3.578   1.905  1.00  0.00     0.007 A 
ATOM     79  C   UNL     1      -6.198   5.016   1.891  1.00  0.00     0.007 A 
ATOM     80  C   UNL     1      -8.927   4.631   1.420  1.00  0.00     0.046 A 
ATOM     81  C   UNL     1      -6.978   6.068   1.397  1.00  0.00     0.046 A 
ATOM     82  C   UNL     1      -8.354   5.881   1.159  1.00  0.00     0.118 A 
BRANCH  82  83
ATOM     83  O   UNL     1      -9.180   6.901   0.663  1.00  0.00    -0.497 OA
ATOM     84  C   UNL     1      -8.728   8.212   0.338  1.00  0.00     0.278 C 
ENDBRANCH  82  83
ENDBRANCH  76  77
ENDBRANCH  74  76
ENDBRANCH  71  74
ENDBRANCH  69  70
ENDBRANCH  68  69
ENDBRANCH  67  68
ENDBRANCH  66  67
ENDBRANCH   1  66
TORSDOF 19
