REMARK SMILES O=C1N(Cc2ccccc2)C2C[S+]3CCCC3C2N1Cc1ccccc1
REMARK SMILES IDX 1 1 2 2 3 3 11 4 12 5 13 6 14 7 15 8 16 9 17 10 18 11 19 12
REMARK SMILES IDX 4 13 5 14 6 15 10 16 7 17 9 18 8 19 20 20 21 21 22 22 26 23
REMARK SMILES IDX 23 24 25 25 24 26
REMARK H PARENT
REMARK Flexibility Score: inf
ROOT
ATOM      1  O   UNL     1      -0.439  -2.843  -1.080  1.00  0.00    -0.248 OA
ATOM      2  C   UNL     1      -0.229  -1.611  -0.923  1.00  0.00     0.321 C 
ATOM      3  N   UNL     1       1.068  -1.050  -0.833  1.00  0.00    -0.310 N 
ATOM      4  C   UNL     1       0.905   0.404  -0.738  1.00  0.00     0.164 C 
ATOM      5  C   UNL     1       1.423   0.914   0.611  1.00  0.00     0.305 C 
ATOM      6  S   UNL     1       0.200   1.999   1.261  1.00  0.00    -0.005 S 
ATOM      7  C   UNL     1       0.429   3.666   0.706  1.00  0.00     0.278 C 
ATOM      8  C   UNL     1      -0.551   3.864  -0.447  1.00  0.00     0.060 C 
ATOM      9  C   UNL     1      -1.725   2.898  -0.250  1.00  0.00     0.066 C 
ATOM     10  C   UNL     1      -1.165   1.564   0.253  1.00  0.00     0.232 C 
ATOM     11  C   UNL     1      -0.625   0.675  -0.892  1.00  0.00     0.167 C 
ATOM     12  N   UNL     1      -1.261  -0.643  -0.892  1.00  0.00    -0.310 N 
ENDROOT
BRANCH   3  13
ATOM     13  C   UNL     1       2.260  -1.705  -1.379  1.00  0.00     0.157 C 
BRANCH  13  14
ATOM     14  C   UNL     1       3.493  -1.269  -0.635  1.00  0.00    -0.028 A 
ATOM     15  C   UNL     1       4.322  -0.263  -1.158  1.00  0.00     0.005 A 
ATOM     16  C   UNL     1       3.787  -1.821   0.623  1.00  0.00     0.005 A 
ATOM     17  C   UNL     1       5.438   0.174  -0.437  1.00  0.00     0.000 A 
ATOM     18  C   UNL     1       4.904  -1.381   1.340  1.00  0.00     0.000 A 
ATOM     19  C   UNL     1       5.729  -0.386   0.810  1.00  0.00     0.000 A 
ENDBRANCH  13  14
ENDBRANCH   3  13
BRANCH  12  20
ATOM     20  C   UNL     1      -2.644  -0.890  -1.308  1.00  0.00     0.157 C 
BRANCH  20  21
ATOM     21  C   UNL     1      -3.469  -1.362  -0.141  1.00  0.00    -0.028 A 
ATOM     22  C   UNL     1      -3.453  -2.714   0.241  1.00  0.00     0.005 A 
ATOM     23  C   UNL     1      -4.248  -0.450   0.593  1.00  0.00     0.005 A 
ATOM     24  C   UNL     1      -4.201  -3.145   1.342  1.00  0.00     0.000 A 
ATOM     25  C   UNL     1      -4.993  -0.885   1.694  1.00  0.00     0.000 A 
ATOM     26  C   UNL     1      -4.969  -2.231   2.068  1.00  0.00     0.000 A 
ENDBRANCH  20  21
ENDBRANCH  12  20
TORSDOF 4
