REMARK SMILES O=P1(NCCCl)OCCCN1CCCl
REMARK SMILES IDX 2 1 1 2 7 3 8 4 9 5 10 6 11 7 3 8 4 10 5 11 6 12 12 13 13 14
REMARK SMILES IDX 14 15
REMARK H PARENT 3 9
REMARK Flexibility Score: inf
ROOT
ATOM      1  P   UNL     1       0.447  -1.068  -0.181  1.00  0.00     0.343 P 
ATOM      2  O   UNL     1       0.676  -1.457  -1.626  1.00  0.00    -0.256 OA
ATOM      3  O   UNL     1      -0.356  -2.336   0.624  1.00  0.00    -0.306 OA
ATOM      4  C   UNL     1      -1.723  -2.243   0.299  1.00  0.00     0.172 C 
ATOM      5  C   UNL     1      -2.400  -1.019   0.949  1.00  0.00     0.045 C 
ATOM      6  C   UNL     1      -1.472   0.209   1.089  1.00  0.00     0.098 C 
ATOM      7  N   UNL     1      -0.540   0.394  -0.041  1.00  0.00    -0.218 NA
ENDROOT
BRANCH   1   8
ATOM      8  N   UNL     1       1.995  -0.793   0.607  1.00  0.00    -0.231 NA
ATOM      9  H   UNL     1       2.555  -1.668   0.482  1.00  0.00     0.133 HD
BRANCH   8  10
ATOM     10  C   UNL     1       2.697   0.302  -0.068  1.00  0.00     0.108 C 
BRANCH  10  11
ATOM     11  C   UNL     1       3.988   0.640   0.673  1.00  0.00     0.125 C 
ATOM     12  Cl  UNL     1       3.637   1.246   2.313  1.00  0.00    -0.125 Cl
ENDBRANCH  10  11
ENDBRANCH   8  10
ENDBRANCH   1   8
BRANCH   7  13
ATOM     13  C   UNL     1      -1.206   0.731  -1.317  1.00  0.00     0.111 C 
BRANCH  13  14
ATOM     14  C   UNL     1      -1.729   2.170  -1.325  1.00  0.00     0.125 C 
ATOM     15  Cl  UNL     1      -0.424   3.327  -0.946  1.00  0.00    -0.125 Cl
ENDBRANCH  13  14
ENDBRANCH   7  13
TORSDOF 5
