REMARK SMILES CC[N+](CC)(CCNC(=O)C(=O)NCC[N+](CC)(CC)Cc1ccccc1Cl)Cc1ccccc1Cl
REMARK SMILES IDX 8 1 9 2 10 3 7 5 6 6 3 7 2 8 1 9 4 10 5 11 29 12 30 13 31 14
REMARK SMILES IDX 35 15 32 16 34 17 36 18 33 19 11 20 12 21 13 22 14 24 15 25
REMARK SMILES IDX 16 26 17 27 18 28 19 29 20 30 21 31 22 32 23 33 27 34 24 35
REMARK SMILES IDX 26 36 28 37 25 38
REMARK H PARENT 8 4 13 23
REMARK Flexibility Score: inf
ROOT
ATOM      1  N   UNL     1      -2.031  -0.082  -0.893  1.00  0.00    -0.342 N 
ATOM      2  C   UNL     1      -0.734  -0.697  -0.928  1.00  0.00     0.309 C 
ATOM      3  O   UNL     1      -0.613  -1.887  -1.325  1.00  0.00    -0.264 OA
ATOM      4  H   UNL     1      -2.095   0.914  -0.583  1.00  0.00     0.164 HD
ENDROOT
BRANCH   1   5
ATOM      5  C   UNL     1      -3.247  -0.839  -1.207  1.00  0.00     0.177 C 
BRANCH   5   6
ATOM      6  C   UNL     1      -4.535   0.007  -0.958  1.00  0.00     0.285 C 
BRANCH   6   7
ATOM      7  N   UNL     1      -5.678  -0.657  -0.240  1.00  0.00    -0.319 N 
BRANCH   7   8
ATOM      8  C   UNL     1      -6.015  -1.961  -0.917  1.00  0.00     0.260 C 
ATOM      9  C   UNL     1      -7.158  -2.773  -0.276  1.00  0.00     0.071 C 
ENDBRANCH   7   8
BRANCH   7  10
ATOM     10  C   UNL     1      -5.386  -0.810   1.231  1.00  0.00     0.260 C 
ATOM     11  C   UNL     1      -4.348  -1.868   1.648  1.00  0.00     0.071 C 
ENDBRANCH   7  10
BRANCH   7  12
ATOM     12  C   UNL     1      -6.890   0.240  -0.382  1.00  0.00     0.302 C 
BRANCH  12  13
ATOM     13  C   UNL     1      -6.706   1.685   0.092  1.00  0.00     0.025 A 
ATOM     14  C   UNL     1      -6.888   1.988   1.455  1.00  0.00     0.011 A 
ATOM     15  C   UNL     1      -6.412   2.747  -0.801  1.00  0.00     0.049 A 
ATOM     16  C   UNL     1      -6.694   3.285   1.935  1.00  0.00     0.001 A 
ATOM     17  C   UNL     1      -6.219   4.043  -0.304  1.00  0.00     0.021 A 
ATOM     18  Cl  UNL     1      -6.337   2.532  -2.550  1.00  0.00    -0.084 Cl
ATOM     19  C   UNL     1      -6.346   4.309   1.058  1.00  0.00     0.002 A 
ENDBRANCH  12  13
ENDBRANCH   7  12
ENDBRANCH   6   7
ENDBRANCH   5   6
ENDBRANCH   1   5
BRANCH   2  20
ATOM     20  C   UNL     1       0.457   0.052  -0.483  1.00  0.00     0.309 C 
ATOM     21  O   UNL     1       0.350   1.276  -0.199  1.00  0.00    -0.264 OA
ATOM     22  N   UNL     1       1.728  -0.600  -0.356  1.00  0.00    -0.342 N 
ATOM     23  H   UNL     1       1.810  -1.606  -0.628  1.00  0.00     0.164 HD
BRANCH  22  24
ATOM     24  C   UNL     1       2.890   0.124   0.167  1.00  0.00     0.177 C 
BRANCH  24  25
ATOM     25  C   UNL     1       4.110  -0.811   0.400  1.00  0.00     0.285 C 
BRANCH  25  26
ATOM     26  N   UNL     1       5.230  -0.733  -0.609  1.00  0.00    -0.319 N 
BRANCH  26  27
ATOM     27  C   UNL     1       6.182  -1.833  -0.214  1.00  0.00     0.260 C 
ATOM     28  C   UNL     1       7.396  -2.066  -1.128  1.00  0.00     0.071 C 
ENDBRANCH  26  27
BRANCH  26  29
ATOM     29  C   UNL     1       4.670  -1.036  -1.983  1.00  0.00     0.260 C 
ATOM     30  C   UNL     1       5.431  -0.443  -3.189  1.00  0.00     0.071 C 
ENDBRANCH  26  29
BRANCH  26  31
ATOM     31  C   UNL     1       5.894   0.627  -0.556  1.00  0.00     0.302 C 
BRANCH  31  32
ATOM     32  C   UNL     1       6.377   1.094   0.822  1.00  0.00     0.025 A 
ATOM     33  C   UNL     1       7.605   0.612   1.324  1.00  0.00     0.011 A 
ATOM     34  C   UNL     1       5.677   2.063   1.589  1.00  0.00     0.049 A 
ATOM     35  C   UNL     1       8.058   0.978   2.593  1.00  0.00     0.001 A 
ATOM     36  C   UNL     1       6.140   2.411   2.865  1.00  0.00     0.021 A 
ATOM     37  Cl  UNL     1       4.291   2.957   0.971  1.00  0.00    -0.084 Cl
ATOM     38  C   UNL     1       7.317   1.860   3.371  1.00  0.00     0.002 A 
ENDBRANCH  31  32
ENDBRANCH  26  31
ENDBRANCH  25  26
ENDBRANCH  24  25
ENDBRANCH  22  24
ENDBRANCH   2  20
TORSDOF 15
