REMARK SMILES COc1ccc(CC(C)N)cc1
REMARK SMILES IDX 7 1 6 2 3 3 4 4 12 5 5 6 11 7 2 8 1 9 8 10 9 11 10 12
REMARK H PARENT 10 13 10 14
REMARK Flexibility Score: inf
ROOT
ATOM      1  C   UNL     1      -1.799  -0.660   0.762  1.00  0.00     0.053 C 
ENDROOT
BRANCH   1   2
ATOM      2  C   UNL     1      -0.325  -0.548   0.461  1.00  0.00    -0.046 A 
ATOM      3  C   UNL     1       2.416  -0.324  -0.152  1.00  0.00     0.118 A 
ATOM      4  C   UNL     1       1.778   0.660   0.628  1.00  0.00     0.046 A 
ATOM      5  C   UNL     1       1.671  -1.413  -0.621  1.00  0.00     0.046 A 
ATOM      6  C   UNL     1       0.417   0.547   0.929  1.00  0.00     0.007 A 
ATOM      7  C   UNL     1       0.311  -1.525  -0.321  1.00  0.00     0.007 A 
BRANCH   3   8
ATOM      8  O   UNL     1       3.778  -0.257  -0.481  1.00  0.00    -0.497 OA
ATOM      9  C   UNL     1       4.652   0.790  -0.073  1.00  0.00     0.278 C 
ENDBRANCH   3   8
ENDBRANCH   1   2
BRANCH   1  10
ATOM     10  C   UNL     1      -2.671  -0.221  -0.435  1.00  0.00     0.051 C 
ATOM     11  C   UNL     1      -2.523   1.277  -0.730  1.00  0.00     0.024 C 
BRANCH  10  12
ATOM     12  N   UNL     1      -4.081  -0.528  -0.187  1.00  0.00    -0.328 NA
ATOM     13  H   UNL     1      -4.190  -1.565  -0.102  1.00  0.00     0.119 HD
ATOM     14  H   UNL     1      -4.372  -0.106   0.726  1.00  0.00     0.119 HD
ENDBRANCH  10  12
ENDBRANCH   1  10
TORSDOF 4
