REMARK SMILES CN(C)CCC=C1c2ccccc2COc2ccccc21
REMARK SMILES IDX 5 1 6 2 7 3 8 4 21 5 9 6 13 7 16 8 20 9 10 10 12 11 14 12
REMARK SMILES IDX 15 13 17 14 19 15 11 16 18 17 4 18 2 19 1 20 3 21
REMARK H PARENT
REMARK Flexibility Score: inf
ROOT
ATOM      1  C   UNL     1       1.550  -0.369  -1.151  1.00  0.00     0.043 C 
ENDROOT
BRANCH   1   2
ATOM      2  C   UNL     1       0.402  -1.095  -0.498  1.00  0.00    -0.016 C 
ATOM      3  C   UNL     1      -0.744  -0.516  -0.078  1.00  0.00    -0.011 C 
ATOM      4  C   UNL     1      -1.830  -1.360   0.483  1.00  0.00    -0.011 A 
ATOM      5  C   UNL     1      -0.978   0.933  -0.213  1.00  0.00     0.024 A 
ATOM      6  C   UNL     1      -1.489  -2.271   1.504  1.00  0.00     0.009 A 
ATOM      7  C   UNL     1      -3.192  -1.276   0.058  1.00  0.00    -0.003 A 
ATOM      8  C   UNL     1      -1.980   1.364  -1.081  1.00  0.00     0.127 A 
ATOM      9  C   UNL     1      -0.204   1.876   0.482  1.00  0.00     0.012 A 
ATOM     10  C   UNL     1      -2.453  -3.088   2.090  1.00  0.00     0.001 A 
ATOM     11  C   UNL     1      -4.144  -2.111   0.674  1.00  0.00     0.008 A 
ATOM     12  C   UNL     1      -3.739  -0.344  -1.015  1.00  0.00     0.266 C 
ATOM     13  O   UNL     1      -2.769   0.418  -1.725  1.00  0.00    -0.488 OA
ATOM     14  C   UNL     1      -2.179   2.730  -1.307  1.00  0.00     0.047 A 
ATOM     15  C   UNL     1      -0.415   3.243   0.272  1.00  0.00     0.001 A 
ATOM     16  C   UNL     1      -3.778  -3.009   1.676  1.00  0.00     0.000 A 
ATOM     17  C   UNL     1      -1.397   3.670  -0.628  1.00  0.00     0.004 A 
ENDBRANCH   1   2
BRANCH   1  18
ATOM     18  C   UNL     1       2.754  -0.305  -0.203  1.00  0.00     0.088 C 
BRANCH  18  19
ATOM     19  N   UNL     1       3.802   0.585  -0.749  1.00  0.00    -0.309 NA
ATOM     20  C   UNL     1       4.668   1.074   0.336  1.00  0.00     0.104 C 
ATOM     21  C   UNL     1       4.624  -0.117  -1.751  1.00  0.00     0.104 C 
ENDBRANCH  18  19
ENDBRANCH   1  18
TORSDOF 3
