REMARK SMILES C[C@@H](NCCCc1cccc(C(F)(F)F)c1)c1cccc2ccccc12
REMARK SMILES IDX 4 1 3 2 2 4 1 5 17 6 18 7 26 8 19 9 21 10 25 11 20 12 22 13
REMARK SMILES IDX 24 14 23 15 5 16 6 17 7 18 16 19 8 20 11 21 9 22 10 23 12 24
REMARK SMILES IDX 13 25 14 26 15 27
REMARK H PARENT 3 3
REMARK Flexibility Score: inf
ROOT
ATOM      1  C   UNL     1      -0.436  -1.626  -2.227  1.00  0.00     0.082 C 
ENDROOT
BRANCH   1   2
ATOM      2  N   UNL     1      -0.679  -2.619  -1.158  1.00  0.00    -0.310 NA
ATOM      3  H   UNL     1       0.168  -3.228  -1.071  1.00  0.00     0.123 HD
BRANCH   2   4
ATOM      4  C   UNL     1      -1.011  -2.046   0.164  1.00  0.00     0.081 C 
ATOM      5  C   UNL     1      -1.255  -3.177   1.168  1.00  0.00     0.029 C 
BRANCH   4   6
ATOM      6  C   UNL     1      -2.253  -1.154   0.103  1.00  0.00    -0.023 A 
ATOM      7  C   UNL     1      -3.366  -1.630  -0.619  1.00  0.00     0.006 A 
ATOM      8  C   UNL     1      -2.350   0.111   0.761  1.00  0.00    -0.014 A 
ATOM      9  C   UNL     1      -4.519  -0.862  -0.759  1.00  0.00     0.001 A 
ATOM     10  C   UNL     1      -3.532   0.888   0.592  1.00  0.00    -0.018 A 
ATOM     11  C   UNL     1      -1.327   0.631   1.590  1.00  0.00     0.009 A 
ATOM     12  C   UNL     1      -4.598   0.395  -0.171  1.00  0.00     0.009 A 
ATOM     13  C   UNL     1      -3.643   2.150   1.198  1.00  0.00     0.009 A 
ATOM     14  C   UNL     1      -1.457   1.888   2.185  1.00  0.00     0.001 A 
ATOM     15  C   UNL     1      -2.607   2.647   1.984  1.00  0.00     0.001 A 
ENDBRANCH   4   6
ENDBRANCH   2   4
ENDBRANCH   1   2
BRANCH   1  16
ATOM     16  C   UNL     1       0.584  -0.524  -1.878  1.00  0.00     0.020 C 
BRANCH  16  17
ATOM     17  C   UNL     1       1.976  -1.071  -1.537  1.00  0.00     0.037 C 
BRANCH  17  18
ATOM     18  C   UNL     1       2.894   0.056  -1.149  1.00  0.00    -0.047 A 
ATOM     19  C   UNL     1       2.847   0.582   0.153  1.00  0.00     0.016 A 
ATOM     20  C   UNL     1       3.757   0.631  -2.094  1.00  0.00     0.004 A 
ATOM     21  C   UNL     1       3.652   1.676   0.514  1.00  0.00     0.056 A 
ATOM     22  C   UNL     1       4.584   1.696  -1.733  1.00  0.00     0.001 A 
ATOM     23  C   UNL     1       4.542   2.211  -0.434  1.00  0.00     0.013 A 
BRANCH  21  24
ATOM     24  C   UNL     1       3.624   2.207   1.926  1.00  0.00     0.416 C 
ATOM     25  F   UNL     1       4.508   1.481   2.702  1.00  0.00    -0.166 F 
ATOM     26  F   UNL     1       2.353   2.093   2.462  1.00  0.00    -0.166 F 
ATOM     27  F   UNL     1       3.989   3.542   1.957  1.00  0.00    -0.166 F 
ENDBRANCH  21  24
ENDBRANCH  17  18
ENDBRANCH  16  17
ENDBRANCH   1  16
TORSDOF 7
