REMARK SMILES CO[C@]12CC[C@@]3(C[C@@H]1C(C)(C)O)[C@H]1Cc4ccc(O)c5c4[C@@]3(CCN1CC1CC1)[C@H]2O5
REMARK SMILES IDX 30 1 31 2 20 3 18 4 17 5 16 6 15 7 21 8 22 9 23 10 24 11
REMARK SMILES IDX 25 12 13 13 14 14 6 15 5 16 4 17 3 18 8 19 7 20 2 21 1 22
REMARK SMILES IDX 9 23 10 24 11 25 12 26 19 28 26 30 27 31 28 32 29 33
REMARK H PARENT 12 27 19 29
REMARK Flexibility Score: inf
ROOT
ATOM      1  C   UNL     1      -1.513   1.013   1.197  1.00  0.00     0.217 C 
ATOM      2  O   UNL     1      -1.860   2.400   1.057  1.00  0.00    -0.482 OA
ATOM      3  C   UNL     1      -0.845   3.103   0.434  1.00  0.00     0.165 A 
ATOM      4  C   UNL     1      -0.880   4.427  -0.009  1.00  0.00     0.158 A 
ATOM      5  C   UNL     1       0.160   4.870  -0.850  1.00  0.00     0.050 A 
ATOM      6  C   UNL     1       1.144   3.963  -1.300  1.00  0.00     0.008 A 
ATOM      7  C   UNL     1       1.137   2.631  -0.842  1.00  0.00    -0.039 A 
ATOM      8  C   UNL     1       0.206   2.290   0.141  1.00  0.00     0.012 A 
ATOM      9  C   UNL     1      -0.060   0.910   0.613  1.00  0.00     0.048 C 
ATOM     10  C   UNL     1       0.973   0.518   1.703  1.00  0.00     0.032 C 
ATOM     11  C   UNL     1       2.394   0.353   1.137  1.00  0.00     0.086 C 
ATOM     12  N   UNL     1       2.397  -0.469  -0.095  1.00  0.00    -0.299 NA
ATOM     13  C   UNL     1       1.489   0.062  -1.146  1.00  0.00     0.068 C 
ATOM     14  C   UNL     1       1.881   1.530  -1.584  1.00  0.00     0.055 C 
ATOM     15  C   UNL     1       0.018  -0.030  -0.626  1.00  0.00     0.000 C 
ATOM     16  C   UNL     1      -1.030   0.387  -1.711  1.00  0.00     0.013 C 
ATOM     17  C   UNL     1      -2.450   0.465  -1.100  1.00  0.00     0.040 C 
ATOM     18  C   UNL     1      -2.457   0.028   0.403  1.00  0.00     0.111 C 
ATOM     19  C   UNL     1      -1.783  -1.408   0.550  1.00  0.00     0.057 C 
ATOM     20  C   UNL     1      -0.408  -1.461  -0.202  1.00  0.00     0.019 C 
ENDROOT
BRANCH  18  21
ATOM     21  O   UNL     1      -3.784  -0.059   0.924  1.00  0.00    -0.374 OA
ATOM     22  C   UNL     1      -4.410   1.181   1.174  1.00  0.00     0.195 C 
ENDBRANCH  18  21
BRANCH  19  23
ATOM     23  C   UNL     1      -2.696  -2.676   0.326  1.00  0.00     0.065 C 
ATOM     24  C   UNL     1      -1.872  -3.968   0.554  1.00  0.00     0.042 C 
ATOM     25  C   UNL     1      -3.328  -2.724  -1.082  1.00  0.00     0.042 C 
BRANCH  23  26
ATOM     26  O   UNL     1      -3.723  -2.650   1.292  1.00  0.00    -0.390 OA
ATOM     27  H   UNL     1      -4.326  -3.424   1.133  1.00  0.00     0.211 HD
ENDBRANCH  23  26
ENDBRANCH  19  23
BRANCH   4  28
ATOM     28  O   UNL     1      -1.926   5.281   0.331  1.00  0.00    -0.504 OA
ATOM     29  H   UNL     1      -2.687   4.973   0.924  1.00  0.00     0.293 HD
ENDBRANCH   4  28
BRANCH  12  30
ATOM     30  C   UNL     1       3.768  -0.722  -0.584  1.00  0.00     0.088 C 
BRANCH  30  31
ATOM     31  C   UNL     1       4.366  -1.922   0.159  1.00  0.00     0.003 C 
ATOM     32  C   UNL     1       5.854  -2.128  -0.079  1.00  0.00     0.005 C 
ATOM     33  C   UNL     1       5.366  -1.606   1.262  1.00  0.00     0.005 C 
ENDBRANCH  30  31
ENDBRANCH  12  30
TORSDOF 6
