REMARK SMILES CN1CCC2=C(C1)C(c1ccccc1)c1ccccc12
REMARK SMILES IDX 1 1 2 2 3 3 4 4 5 5 6 6 7 7 8 8 15 9 16 10 17 11 18 12 19 13
REMARK SMILES IDX 20 14 9 15 10 16 14 17 11 18 13 19 12 20
REMARK H PARENT
REMARK Flexibility Score: inf
ROOT
ATOM      1  C   UNL     1      -3.463  -2.564   0.388  1.00  0.00     0.105 C 
ATOM      2  N   UNL     1      -2.591  -1.487  -0.106  1.00  0.00    -0.302 NA
ATOM      3  C   UNL     1      -3.392  -0.279  -0.402  1.00  0.00     0.089 C 
ATOM      4  C   UNL     1      -2.516   0.788  -1.081  1.00  0.00     0.051 C 
ATOM      5  C   UNL     1      -1.207   0.921  -0.362  1.00  0.00    -0.038 C 
ATOM      6  C   UNL     1      -0.726  -0.003   0.466  1.00  0.00    -0.040 C 
ATOM      7  C   UNL     1      -1.541  -1.190   0.894  1.00  0.00     0.116 C 
ATOM      8  C   UNL     1       0.626   0.383   1.016  1.00  0.00     0.077 C 
ATOM      9  C   UNL     1       0.854   1.678   0.296  1.00  0.00    -0.029 A 
ATOM     10  C   UNL     1       1.954   2.535   0.370  1.00  0.00     0.005 A 
ATOM     11  C   UNL     1       1.944   3.706  -0.407  1.00  0.00     0.000 A 
ATOM     12  C   UNL     1       0.842   4.002  -1.234  1.00  0.00     0.001 A 
ATOM     13  C   UNL     1      -0.259   3.131  -1.289  1.00  0.00     0.009 A 
ATOM     14  C   UNL     1      -0.223   1.976  -0.509  1.00  0.00    -0.018 A 
ENDROOT
BRANCH   8  15
ATOM     15  C   UNL     1       1.685  -0.644   0.683  1.00  0.00    -0.036 A 
ATOM     16  C   UNL     1       1.930  -1.030  -0.650  1.00  0.00     0.005 A 
ATOM     17  C   UNL     1       2.440  -1.230   1.713  1.00  0.00     0.005 A 
ATOM     18  C   UNL     1       2.911  -1.983  -0.940  1.00  0.00     0.000 A 
ATOM     19  C   UNL     1       3.420  -2.183   1.417  1.00  0.00     0.000 A 
ATOM     20  C   UNL     1       3.656  -2.559   0.092  1.00  0.00     0.000 A 
ENDBRANCH   8  15
TORSDOF 1
