REMARK SMILES CCCC(=O)Nc1ccc(OCC(O)CNC(C)C)c(C(C)=O)c1
REMARK SMILES IDX 12 1 11 2 10 3 7 4 8 5 24 6 9 7 20 8 6 9 4 10 5 11 3 13 2 14
REMARK SMILES IDX 1 15 21 16 22 17 23 18 13 19 14 20 15 22 16 23 17 25 18 26
REMARK SMILES IDX 19 27
REMARK H PARENT 6 12 14 21 16 24
REMARK Flexibility Score: inf
ROOT
ATOM      1  C   UNL     1       2.348  -0.345   0.753  1.00  0.00     0.262 C 
ENDROOT
BRANCH   1   2
ATOM      2  O   UNL     1       1.171   0.170   1.380  1.00  0.00    -0.490 OA
BRANCH   2   3
ATOM      3  C   UNL     1      -0.128   0.192   0.839  1.00  0.00     0.130 A 
ATOM      4  C   UNL     1      -2.767   0.204  -0.165  1.00  0.00     0.042 A 
ATOM      5  C   UNL     1      -1.783  -0.580  -0.772  1.00  0.00     0.030 A 
ATOM      6  C   UNL     1      -2.422   1.009   0.932  1.00  0.00     0.041 A 
ATOM      7  C   UNL     1      -0.481  -0.596  -0.273  1.00  0.00     0.049 A 
ATOM      8  C   UNL     1      -1.111   1.008   1.449  1.00  0.00     0.061 A 
BRANCH   4   9
ATOM      9  N   UNL     1      -4.096   0.214  -0.713  1.00  0.00    -0.326 N 
ATOM     10  C   UNL     1      -5.291   0.333   0.077  1.00  0.00     0.224 C 
ATOM     11  O   UNL     1      -5.241   0.243   1.333  1.00  0.00    -0.275 OA
ATOM     12  H   UNL     1      -4.205   0.026  -1.736  1.00  0.00     0.169 HD
BRANCH  10  13
ATOM     13  C   UNL     1      -6.624   0.487  -0.595  1.00  0.00     0.100 C 
BRANCH  13  14
ATOM     14  C   UNL     1      -7.378  -0.846  -0.678  1.00  0.00     0.006 C 
ATOM     15  C   UNL     1      -6.704  -1.840  -1.624  1.00  0.00     0.004 C 
ENDBRANCH  13  14
ENDBRANCH  10  13
ENDBRANCH   4   9
BRANCH   8  16
ATOM     16  C   UNL     1      -0.775   1.877   2.612  1.00  0.00     0.163 C 
ATOM     17  C   UNL     1      -1.829   2.364   3.560  1.00  0.00     0.093 C 
ATOM     18  O   UNL     1       0.414   2.254   2.797  1.00  0.00    -0.294 OA
ENDBRANCH   8  16
ENDBRANCH   2   3
ENDBRANCH   1   2
BRANCH   1  19
ATOM     19  C   UNL     1       2.927   0.676  -0.246  1.00  0.00     0.165 C 
BRANCH  19  20
ATOM     20  O   UNL     1       2.033   0.902  -1.306  1.00  0.00    -0.388 OA
ATOM     21  H   UNL     1       1.978   0.064  -1.837  1.00  0.00     0.211 HD
ENDBRANCH  19  20
BRANCH  19  22
ATOM     22  C   UNL     1       4.298   0.228  -0.787  1.00  0.00     0.116 C 
BRANCH  22  23
ATOM     23  N   UNL     1       5.298   0.230   0.293  1.00  0.00    -0.312 NA
ATOM     24  H   UNL     1       5.552   1.225   0.501  1.00  0.00     0.123 HD
BRANCH  23  25
ATOM     25  C   UNL     1       6.539  -0.509  -0.017  1.00  0.00     0.047 C 
ATOM     26  C   UNL     1       6.313  -2.026   0.036  1.00  0.00     0.024 C 
ATOM     27  C   UNL     1       7.184  -0.078  -1.344  1.00  0.00     0.024 C 
ENDBRANCH  23  25
ENDBRANCH  22  23
ENDBRANCH  19  22
ENDBRANCH   1  19
TORSDOF 11
