REMARK SMILES Cc1oncc1C(=O)Nc1ccc(C(F)(F)F)cc1
REMARK SMILES IDX 10 1 11 2 12 3 13 4 18 5 19 6 9 7 7 8 8 9 6 11 1 12 2 13
REMARK SMILES IDX 3 14 5 15 4 16 14 17 15 18 16 19 17 20
REMARK H PARENT 9 10
REMARK Flexibility Score: inf
ROOT
ATOM      1  C   UNL     1       0.993   0.084  -0.361  1.00  0.00     0.041 A 
ATOM      2  C   UNL     1       2.116   0.578  -1.041  1.00  0.00     0.027 A 
ATOM      3  C   UNL     1       3.373   0.576  -0.431  1.00  0.00     0.015 A 
ATOM      4  C   UNL     1       3.538   0.049   0.861  1.00  0.00     0.056 A 
ATOM      5  C   UNL     1       2.412  -0.443   1.544  1.00  0.00     0.015 A 
ATOM      6  C   UNL     1       1.155  -0.440   0.933  1.00  0.00     0.027 A 
ENDROOT
BRANCH   1   7
ATOM      7  N   UNL     1      -0.285   0.077  -1.020  1.00  0.00    -0.322 N 
ATOM      8  C   UNL     1      -1.539   0.234  -0.335  1.00  0.00     0.260 C 
ATOM      9  O   UNL     1      -1.565   0.710   0.831  1.00  0.00    -0.269 OA
ATOM     10  H   UNL     1      -0.293   0.057  -2.064  1.00  0.00     0.170 HD
BRANCH   8  11
ATOM     11  C   UNL     1      -2.807  -0.123  -1.004  1.00  0.00     0.102 A 
ATOM     12  C   UNL     1      -4.541   0.688   0.730  1.00  0.00     0.091 C 
ATOM     13  C   UNL     1      -4.103   0.062  -0.554  1.00  0.00     0.146 A 
ATOM     14  O   UNL     1      -4.928  -0.416  -1.455  1.00  0.00    -0.361 OA
ATOM     15  C   UNL     1      -2.966  -0.745  -2.228  1.00  0.00     0.172 A 
ATOM     16  N   UNL     1      -4.281  -0.908  -2.472  1.00  0.00    -0.087 NA
ENDBRANCH   8  11
ENDBRANCH   1   7
BRANCH   4  17
ATOM     17  C   UNL     1       4.885   0.092   1.538  1.00  0.00     0.416 C 
ATOM     18  F   UNL     1       5.012   1.287   2.221  1.00  0.00    -0.166 F 
ATOM     19  F   UNL     1       5.015  -0.956   2.434  1.00  0.00    -0.166 F 
ATOM     20  F   UNL     1       5.904  -0.007   0.607  1.00  0.00    -0.166 F 
ENDBRANCH   4  17
TORSDOF 3
