REMARK SMILES C[C@]12C=CC(=O)C[C@@H]1CC[C@@H]1[C@@H]2CC[C@]2(C)[C@@H](O)CC[C@@H]12
REMARK SMILES IDX 21 1 20 2 19 3 17 4 15 5 16 6 14 7 13 8 12 9 11 10 10 11
REMARK SMILES IDX 9 12 8 13 7 14 5 15 6 16 4 17 3 18 2 19 1 20 18 21
REMARK H PARENT 18 22
REMARK Flexibility Score: inf
ROOT
ATOM      1  C   UNL     1       1.739  -0.242   0.702  1.00  0.00     0.001 C 
ATOM      2  C   UNL     1       2.699   0.303   1.755  1.00  0.00     0.007 C 
ATOM      3  C   UNL     1       4.096  -0.028   1.197  1.00  0.00     0.032 C 
ATOM      4  C   UNL     1       3.877  -0.526  -0.255  1.00  0.00     0.120 C 
ATOM      5  C   UNL     1       2.465  -0.031  -0.633  1.00  0.00    -0.003 C 
ATOM      6  C   UNL     1       2.527   1.462  -1.091  1.00  0.00     0.014 C 
ATOM      7  C   UNL     1       1.747  -0.885  -1.700  1.00  0.00     0.010 C 
ATOM      8  C   UNL     1       0.248  -0.510  -1.805  1.00  0.00     0.005 C 
ATOM      9  C   UNL     1      -0.496  -0.552  -0.427  1.00  0.00     0.002 C 
ATOM     10  C   UNL     1       0.280   0.260   0.673  1.00  0.00    -0.003 C 
ATOM     11  C   UNL     1      -0.384   0.092   2.053  1.00  0.00     0.004 C 
ATOM     12  C   UNL     1      -1.855   0.508   2.015  1.00  0.00     0.005 C 
ATOM     13  C   UNL     1      -2.616  -0.310   0.960  1.00  0.00     0.007 C 
ATOM     14  C   UNL     1      -4.130  -0.022   1.011  1.00  0.00     0.085 C 
ATOM     15  C   UNL     1      -4.848  -0.770  -0.077  1.00  0.00     0.155 C 
ATOM     16  O   UNL     1      -6.095  -0.928  -0.004  1.00  0.00    -0.295 OA
ATOM     17  C   UNL     1      -4.114  -1.306  -1.238  1.00  0.00     0.043 C 
ATOM     18  C   UNL     1      -2.805  -1.079  -1.404  1.00  0.00    -0.016 C 
ATOM     19  C   UNL     1      -2.021  -0.148  -0.484  1.00  0.00    -0.008 C 
ATOM     20  C   UNL     1      -2.208   1.295  -1.030  1.00  0.00     0.016 C 
ENDROOT
BRANCH   4  21
ATOM     21  O   UNL     1       4.882  -0.118  -1.154  1.00  0.00    -0.393 OA
ATOM     22  H   UNL     1       5.113   0.829  -0.969  1.00  0.00     0.210 HD
ENDBRANCH   4  21
TORSDOF 1
