REMARK SMILES CN1C(=O)CN=C(c2ccccc2F)c2cc(Cl)ccc21
REMARK SMILES IDX 21 1 15 2 16 3 17 4 18 5 19 6 20 7 2 8 1 9 3 10 4 11 7 13
REMARK SMILES IDX 6 14 8 15 9 16 13 17 10 18 12 19 14 20 11 21 5 22
REMARK H PARENT
REMARK Flexibility Score: 90.00
ROOT
ATOM      1  C   UNL     1      -1.772  -0.377  -0.352  1.00  0.00     0.053 A 
ATOM      2  C   UNL     1      -0.380  -0.502  -0.603  1.00  0.00     0.026 A 
ATOM      3  C   UNL     1       0.130  -1.736  -1.046  1.00  0.00     0.033 A 
ATOM      4  C   UNL     1      -0.714  -2.832  -1.234  1.00  0.00     0.041 A 
ATOM      5  Cl  UNL     1      -0.056  -4.362  -1.786  1.00  0.00    -0.084 Cl
ATOM      6  C   UNL     1      -2.080  -2.710  -0.985  1.00  0.00     0.023 A 
ATOM      7  C   UNL     1      -2.606  -1.494  -0.549  1.00  0.00     0.028 A 
ENDROOT
BRANCH   1   8
ATOM      8  N   UNL     1      -2.347   0.864   0.112  1.00  0.00    -0.313 N 
ATOM      9  C   UNL     1      -3.354   0.844   1.177  1.00  0.00     0.153 C 
BRANCH   8  10
ATOM     10  C   UNL     1      -2.083   2.098  -0.583  1.00  0.00     0.248 CG0
ATOM     11  O   UNL     1      -2.816   3.106  -0.390  1.00  0.00    -0.272 OA
ATOM     12  G   UNL     1      -0.931   2.206  -1.531  1.00  0.00     0.000 G0
ENDBRANCH   8  10
ENDBRANCH   1   8
BRANCH   2  13
ATOM     13  C   UNL     1       0.568   0.633  -0.400  1.00  0.00     0.078 C 
ATOM     14  N   UNL     1       0.295   1.828  -0.840  1.00  0.00    -0.274 NA
BRANCH  13  15
ATOM     15  C   UNL     1       1.863   0.408   0.294  1.00  0.00     0.036 A 
ATOM     16  C   UNL     1       1.946  -0.522   1.349  1.00  0.00     0.013 A 
ATOM     17  C   UNL     1       3.021   1.127  -0.072  1.00  0.00     0.132 A 
ATOM     18  C   UNL     1       3.157  -0.734   2.015  1.00  0.00     0.001 A 
ATOM     19  C   UNL     1       4.229   0.908   0.600  1.00  0.00     0.040 A 
ATOM     20  F   UNL     1       2.995   2.019  -1.095  1.00  0.00    -0.206 F 
ATOM     21  C   UNL     1       4.296  -0.020   1.641  1.00  0.00     0.003 A 
ENDBRANCH  13  15
BRANCH  14  22
ATOM     22  C   UNL     1      -0.931   2.206  -1.531  1.00  0.00     0.243 CG0
ATOM     23  G   UNL     1      -2.083   2.098  -0.583  1.00  0.00     0.000 G0
ENDBRANCH  14  22
ENDBRANCH   2  13
TORSDOF 1
