REMARK SMILES CC(C)c1nc(N(C)S(C)(=O)=O)nc(-c2ccc(F)cc2)c1/C=C/[C@@H](O)C[C@@H](O)CC(=O)O
REMARK SMILES IDX 27 1 25 2 24 3 23 4 22 5 4 6 5 7 6 8 14 9 13 10 2 11 1 12
REMARK SMILES IDX 3 13 7 14 8 15 9 16 10 17 11 18 12 19 15 20 16 21 21 22
REMARK SMILES IDX 17 23 20 24 18 25 19 26 26 27 28 29 29 30 30 32 31 33 32 34
REMARK SMILES IDX 33 35
REMARK H PARENT 26 28 29 31 33 36
REMARK Flexibility Score: inf
ROOT
ATOM      1  C   UNL     1       3.763   0.615   0.614  1.00  0.00     0.068 C 
ENDROOT
BRANCH   1   2
ATOM      2  C   UNL     1       3.162  -0.748   1.028  1.00  0.00     0.140 C 
BRANCH   2   3
ATOM      3  C   UNL     1       1.705  -0.851   0.659  1.00  0.00     0.005 C 
ATOM      4  C   UNL     1       0.773  -0.163   1.324  1.00  0.00     0.010 C 
BRANCH   4   5
ATOM      5  C   UNL     1      -0.626  -0.126   0.849  1.00  0.00     0.023 A 
ATOM      6  C   UNL     1      -1.461  -1.270   0.881  1.00  0.00     0.056 A 
ATOM      7  N   UNL     1      -2.694  -1.204   0.307  1.00  0.00    -0.216 NA
ATOM      8  C   UNL     1      -3.148  -0.075  -0.312  1.00  0.00     0.239 A 
ATOM      9  C   UNL     1      -1.135   1.053   0.251  1.00  0.00     0.083 A 
ATOM     10  N   UNL     1      -2.366   1.034  -0.321  1.00  0.00    -0.211 NA
BRANCH   6  11
ATOM     11  C   UNL     1      -1.033  -2.583   1.516  1.00  0.00     0.033 C 
ATOM     12  C   UNL     1      -2.018  -2.998   2.623  1.00  0.00     0.014 C 
ATOM     13  C   UNL     1      -0.919  -3.682   0.446  1.00  0.00     0.014 C 
ENDBRANCH   6  11
BRANCH   8  14
ATOM     14  N   UNL     1      -4.454  -0.042  -0.925  1.00  0.00    -0.241 N 
ATOM     15  C   UNL     1      -4.949   1.226  -1.472  1.00  0.00     0.167 C 
BRANCH  14  16
ATOM     16  S   UNL     1      -5.512  -1.425  -0.991  1.00  0.00     0.234 S 
ATOM     17  C   UNL     1      -4.659  -2.990  -0.941  1.00  0.00     0.183 C 
ATOM     18  O   UNL     1      -6.275  -1.394  -2.286  1.00  0.00    -0.207 OA
ATOM     19  O   UNL     1      -6.489  -1.361   0.152  1.00  0.00    -0.207 OA
ENDBRANCH  14  16
ENDBRANCH   8  14
BRANCH   9  20
ATOM     20  C   UNL     1      -0.357   2.304   0.183  1.00  0.00     0.001 A 
ATOM     21  C   UNL     1      -0.118   2.912  -1.059  1.00  0.00     0.013 A 
ATOM     22  C   UNL     1       0.096   2.929   1.355  1.00  0.00     0.013 A 
ATOM     23  C   UNL     1       0.596   4.110  -1.128  1.00  0.00     0.040 A 
ATOM     24  C   UNL     1       0.806   4.126   1.283  1.00  0.00     0.040 A 
ATOM     25  C   UNL     1       1.060   4.715   0.042  1.00  0.00     0.123 A 
ATOM     26  F   UNL     1       1.757   5.876  -0.028  1.00  0.00    -0.207 F 
ENDBRANCH   9  20
ENDBRANCH   4   5
ENDBRANCH   2   3
BRANCH   2  27
ATOM     27  O   UNL     1       3.888  -1.796   0.445  1.00  0.00    -0.389 OA
ATOM     28  H   UNL     1       3.612  -2.630   0.905  1.00  0.00     0.211 HD
ENDBRANCH   2  27
ENDBRANCH   1   2
BRANCH   1  29
ATOM     29  C   UNL     1       3.464   1.074  -0.840  1.00  0.00     0.128 C 
BRANCH  29  30
ATOM     30  O   UNL     1       3.965   2.374  -1.029  1.00  0.00    -0.392 OA
ATOM     31  H   UNL     1       3.357   2.994  -0.549  1.00  0.00     0.210 HD
ENDBRANCH  29  30
BRANCH  29  32
ATOM     32  C   UNL     1       4.058   0.153  -1.924  1.00  0.00     0.154 C 
BRANCH  32  33
ATOM     33  C   UNL     1       5.559   0.170  -1.937  1.00  0.00     0.305 C 
ATOM     34  O   UNL     1       6.215  -0.633  -1.220  1.00  0.00    -0.252 OA
BRANCH  33  35
ATOM     35  O   UNL     1       6.227   1.125  -2.699  1.00  0.00    -0.481 OA
ATOM     36  H   UNL     1       7.239   1.163  -2.711  1.00  0.00     0.296 HD
ENDBRANCH  33  35
ENDBRANCH  32  33
ENDBRANCH  29  32
ENDBRANCH   1  29
TORSDOF 13
