REMARK SMILES COc1ccccc1OCCNCC(O)COc1cccc2[nH]c3ccccc3c12
REMARK SMILES IDX 12 1 11 3 10 4 9 5 8 6 3 7 4 8 5 9 7 10 6 11 2 12 1 13 13 14
REMARK SMILES IDX 14 15 15 16 16 18 17 19 18 20 19 21 30 22 20 23 22 24 29 25
REMARK SMILES IDX 21 26 23 27 28 28 24 29 27 31 25 32 26 33
REMARK H PARENT 12 2 15 17 23 30
REMARK Flexibility Score: inf
ROOT
ATOM      1  N   UNL     1       0.770   2.928   1.286  1.00  0.00    -0.311 NA
ATOM      2  H   UNL     1       1.103   3.846   1.667  1.00  0.00     0.122 HD
ENDROOT
BRANCH   1   3
ATOM      3  C   UNL     1       1.782   2.380   0.368  1.00  0.00     0.122 C 
BRANCH   3   4
ATOM      4  C   UNL     1       3.216   2.628   0.863  1.00  0.00     0.245 C 
BRANCH   4   5
ATOM      5  O   UNL     1       4.161   2.049  -0.036  1.00  0.00    -0.488 OA
BRANCH   5   6
ATOM      6  C   UNL     1       4.442   0.676  -0.154  1.00  0.00     0.161 A 
ATOM      7  C   UNL     1       5.308   0.262  -1.180  1.00  0.00     0.160 A 
ATOM      8  C   UNL     1       5.615  -1.106  -1.323  1.00  0.00     0.050 A 
ATOM      9  C   UNL     1       5.060  -2.048  -0.454  1.00  0.00     0.004 A 
ATOM     10  C   UNL     1       3.891  -0.286   0.719  1.00  0.00     0.050 A 
ATOM     11  C   UNL     1       4.199  -1.639   0.564  1.00  0.00     0.004 A 
BRANCH   7  12
ATOM     12  O   UNL     1       5.839   1.238  -2.038  1.00  0.00    -0.493 OA
ATOM     13  C   UNL     1       6.724   0.965  -3.120  1.00  0.00     0.278 C 
ENDBRANCH   7  12
ENDBRANCH   5   6
ENDBRANCH   4   5
ENDBRANCH   3   4
ENDBRANCH   1   3
BRANCH   1  14
ATOM     14  C   UNL     1       0.459   2.024   2.406  1.00  0.00     0.116 C 
BRANCH  14  15
ATOM     15  C   UNL     1      -0.619   0.996   2.009  1.00  0.00     0.165 C 
BRANCH  15  16
ATOM     16  O   UNL     1      -0.830   0.078   3.053  1.00  0.00    -0.388 OA
ATOM     17  H   UNL     1      -1.131   0.589   3.849  1.00  0.00     0.211 HD
ENDBRANCH  15  16
BRANCH  15  18
ATOM     18  C   UNL     1      -1.947   1.675   1.618  1.00  0.00     0.262 C 
BRANCH  18  19
ATOM     19  O   UNL     1      -2.873   0.713   1.113  1.00  0.00    -0.490 OA
BRANCH  19  20
ATOM     20  C   UNL     1      -2.807   0.113  -0.155  1.00  0.00     0.129 A 
ATOM     21  C   UNL     1      -1.866   0.493  -1.144  1.00  0.00     0.047 A 
ATOM     22  C   UNL     1      -3.704  -0.908  -0.488  1.00  0.00     0.049 A 
ATOM     23  C   UNL     1      -1.844  -0.147  -2.402  1.00  0.00     0.006 A 
ATOM     24  C   UNL     1      -3.677  -1.533  -1.721  1.00  0.00     0.050 A 
ATOM     25  C   UNL     1      -4.725  -1.513   0.218  1.00  0.00     0.011 A 
ATOM     26  C   UNL     1      -2.756  -1.172  -2.700  1.00  0.00     0.027 A 
ATOM     27  N   UNL     1      -4.626  -2.490  -1.817  1.00  0.00    -0.354 N 
ATOM     28  C   UNL     1      -5.223  -1.311   1.505  1.00  0.00     0.011 A 
ATOM     29  C   UNL     1      -5.259  -2.469  -0.625  1.00  0.00     0.047 A 
ATOM     30  H   UNL     1      -4.824  -3.112  -2.633  1.00  0.00     0.167 HD
ATOM     31  C   UNL     1      -6.295  -2.118   1.928  1.00  0.00     0.001 A 
ATOM     32  C   UNL     1      -6.320  -3.281  -0.226  1.00  0.00     0.027 A 
ATOM     33  C   UNL     1      -6.840  -3.097   1.068  1.00  0.00     0.002 A 
ENDBRANCH  19  20
ENDBRANCH  18  19
ENDBRANCH  15  18
ENDBRANCH  14  15
ENDBRANCH   1  14
TORSDOF 11
