REMARK SMILES CCOC(=O)C1N=C(c2ccccc2F)c2cc(Cl)ccc2NC1=O
REMARK SMILES IDX 6 1 4 3 5 4 3 5 2 6 1 7 7 8 8 9 9 10 10 11 14 12 11 13 13 14
REMARK SMILES IDX 15 15 12 16 16 17 22 18 17 19 21 20 18 21 20 22 19 23 23 24
REMARK SMILES IDX 24 25 25 27
REMARK H PARENT 23 26
REMARK Flexibility Score: 90.00
ROOT
ATOM      1  C   UNL     1       1.349   0.187   1.150  1.00  0.00     0.304 CG0
ATOM      2  G   UNL     1       1.798  -1.231   0.921  1.00  0.00     0.000 G0
ENDROOT
BRANCH   1   3
ATOM      3  C   UNL     1       2.488   1.159   1.052  1.00  0.00     0.340 C 
ATOM      4  O   UNL     1       2.998   1.632   2.104  1.00  0.00    -0.249 OA
BRANCH   3   5
ATOM      5  O   UNL     1       2.994   1.506  -0.207  1.00  0.00    -0.464 OA
BRANCH   5   6
ATOM      6  C   UNL     1       4.130   2.348  -0.392  1.00  0.00     0.229 C 
ATOM      7  C   UNL     1       5.416   1.588  -0.089  1.00  0.00     0.049 C 
ENDBRANCH   5   6
ENDBRANCH   3   5
ENDBRANCH   1   3
BRANCH   1   8
ATOM      8  N   UNL     1       0.344   0.527   0.151  1.00  0.00    -0.259 NA
ATOM      9  C   UNL     1      -0.835  -0.018   0.052  1.00  0.00     0.079 C 
BRANCH   9  10
ATOM     10  C   UNL     1      -1.733   0.459  -1.030  1.00  0.00     0.036 A 
ATOM     11  C   UNL     1      -1.733   1.819  -1.393  1.00  0.00     0.013 A 
ATOM     12  C   UNL     1      -2.579  -0.432  -1.724  1.00  0.00     0.132 A 
ATOM     13  C   UNL     1      -2.574   2.282  -2.409  1.00  0.00     0.001 A 
ATOM     14  C   UNL     1      -3.417   0.040  -2.740  1.00  0.00     0.040 A 
ATOM     15  F   UNL     1      -2.571  -1.761  -1.447  1.00  0.00    -0.206 F 
ATOM     16  C   UNL     1      -3.417   1.394  -3.079  1.00  0.00     0.003 A 
ENDBRANCH   9  10
BRANCH   9  17
ATOM     17  C   UNL     1      -1.309  -1.045   1.027  1.00  0.00     0.026 A 
ATOM     18  C   UNL     1      -0.503  -2.138   1.443  1.00  0.00     0.050 A 
ATOM     19  C   UNL     1      -2.627  -0.946   1.515  1.00  0.00     0.033 A 
ATOM     20  C   UNL     1      -1.053  -3.117   2.286  1.00  0.00     0.028 A 
ATOM     21  C   UNL     1      -3.148  -1.918   2.372  1.00  0.00     0.041 A 
ATOM     22  C   UNL     1      -2.363  -3.006   2.750  1.00  0.00     0.023 A 
ATOM     23  Cl  UNL     1      -4.795  -1.777   2.960  1.00  0.00    -0.084 Cl
BRANCH  18  24
ATOM     24  N   UNL     1       0.856  -2.306   1.003  1.00  0.00    -0.323 N 
ATOM     25  C   UNL     1       1.798  -1.231   0.921  1.00  0.00     0.260 CG0
ATOM     26  H   UNL     1       1.231  -3.279   0.924  1.00  0.00     0.170 HD
ATOM     27  O   UNL     1       3.002  -1.489   0.646  1.00  0.00    -0.272 OA
ATOM     28  G   UNL     1       1.349   0.187   1.150  1.00  0.00     0.000 G0
ENDBRANCH  18  24
ENDBRANCH   9  17
ENDBRANCH   1   8
TORSDOF 4
