REMARK SMILES Clc1ccc(COC(Cn2ccnc2)c2ccc(Cl)cc2Cl)cc1
REMARK SMILES IDX 8 1 7 2 6 3 5 4 1 5 2 6 3 7 24 8 4 9 23 10 9 11 10 12 11 13
REMARK SMILES IDX 14 14 12 15 13 16 15 17 21 18 16 19 22 20 20 21 17 22 18 23
REMARK SMILES IDX 19 24
REMARK H PARENT
REMARK Flexibility Score: inf
ROOT
ATOM      1  C   UNL     1      -0.559  -0.837   0.270  1.00  0.00     0.170 C 
ENDROOT
BRANCH   1   2
ATOM      2  O   UNL     1       0.842  -0.722   0.450  1.00  0.00    -0.367 OA
BRANCH   2   3
ATOM      3  C   UNL     1       1.523  -0.932  -0.771  1.00  0.00     0.196 C 
BRANCH   3   4
ATOM      4  C   UNL     1       2.943  -0.476  -0.613  1.00  0.00    -0.022 A 
ATOM      5  Cl  UNL     1       7.232   0.952  -0.003  1.00  0.00    -0.084 Cl
ATOM      6  C   UNL     1       5.582   0.403  -0.234  1.00  0.00     0.041 A 
ATOM      7  C   UNL     1       4.575   1.324  -0.542  1.00  0.00     0.021 A 
ATOM      8  C   UNL     1       5.271  -0.954  -0.105  1.00  0.00     0.021 A 
ATOM      9  C   UNL     1       3.259   0.888  -0.726  1.00  0.00     0.007 A 
ATOM     10  C   UNL     1       3.956  -1.393  -0.287  1.00  0.00     0.007 A 
ENDBRANCH   3   4
ENDBRANCH   2   3
ENDBRANCH   1   2
BRANCH   1  11
ATOM     11  C   UNL     1      -1.191  -1.195   1.624  1.00  0.00     0.160 C 
BRANCH  11  12
ATOM     12  N   UNL     1      -2.632  -1.408   1.494  1.00  0.00    -0.335 N 
ATOM     13  C   UNL     1      -3.605  -0.502   1.688  1.00  0.00     0.107 A 
ATOM     14  C   UNL     1      -3.251  -2.529   1.077  1.00  0.00     0.199 A 
ATOM     15  C   UNL     1      -4.806  -1.104   1.390  1.00  0.00     0.130 A 
ATOM     16  N   UNL     1      -4.590  -2.380   1.004  1.00  0.00    -0.245 NA
ENDBRANCH  11  12
ENDBRANCH   1  11
BRANCH   1  17
ATOM     17  C   UNL     1      -1.130   0.476  -0.249  1.00  0.00     0.001 A 
ATOM     18  C   UNL     1      -2.088   0.522  -1.290  1.00  0.00     0.048 A 
ATOM     19  C   UNL     1      -0.719   1.684   0.349  1.00  0.00     0.009 A 
ATOM     20  Cl  UNL     1      -2.683  -0.930  -2.090  1.00  0.00    -0.084 Cl
ATOM     21  C   UNL     1      -2.601   1.754  -1.714  1.00  0.00     0.041 A 
ATOM     22  C   UNL     1      -1.237   2.906  -0.084  1.00  0.00     0.021 A 
ATOM     23  C   UNL     1      -2.177   2.942  -1.114  1.00  0.00     0.042 A 
ATOM     24  Cl  UNL     1      -2.829   4.479  -1.654  1.00  0.00    -0.084 Cl
ENDBRANCH   1  17
TORSDOF 6
