REMARK SMILES CC#CCC(C)[C@H](O)/C=C/[C@@H]1[C@H]2C/C(=C/CCCC(=O)O)C[C@H]2C[C@H]1O
REMARK SMILES IDX 23 1 24 2 25 3 11 4 12 5 13 6 14 7 22 8 15 9 26 10 10 12
REMARK SMILES IDX 9 13 7 14 8 15 5 17 6 18 4 19 3 20 2 21 1 22 16 23 17 24
REMARK SMILES IDX 18 25 19 26 20 27 21 28
REMARK H PARENT 26 11 8 16 21 29
REMARK Flexibility Score: inf
ROOT
ATOM      1  C   UNL     1      -0.529  -0.247   0.009  1.00  0.00    -0.000 C 
ATOM      2  C   UNL     1       0.045  -0.944  -1.239  1.00  0.00     0.036 C 
ATOM      3  C   UNL     1       0.567   0.144  -2.186  1.00  0.00     0.121 C 
ATOM      4  C   UNL     1       0.585   1.453  -1.384  1.00  0.00     0.044 C 
ATOM      5  C   UNL     1      -0.419   1.261  -0.236  1.00  0.00     0.006 C 
ATOM      6  C   UNL     1      -1.831   1.759  -0.588  1.00  0.00     0.035 C 
ATOM      7  C   UNL     1      -2.741   0.662  -0.165  1.00  0.00    -0.074 C 
ATOM      8  C   UNL     1      -2.008  -0.559   0.275  1.00  0.00     0.034 C 
ATOM      9  C   UNL     1      -4.080   0.792  -0.173  1.00  0.00    -0.028 C 
ENDROOT
BRANCH   3  10
ATOM     10  O   UNL     1      -0.302   0.283  -3.282  1.00  0.00    -0.392 OA
ATOM     11  H   UNL     1      -0.105  -0.469  -3.899  1.00  0.00     0.210 HD
ENDBRANCH   3  10
BRANCH   4  12
ATOM     12  C   UNL     1       1.974   1.804  -0.881  1.00  0.00    -0.022 C 
ATOM     13  C   UNL     1       2.695   1.001  -0.079  1.00  0.00     0.000 C 
BRANCH  13  14
ATOM     14  C   UNL     1       4.102   1.365   0.360  1.00  0.00     0.140 C 
BRANCH  14  15
ATOM     15  O   UNL     1       4.299   1.090   1.726  1.00  0.00    -0.389 OA
ATOM     16  H   UNL     1       3.874   0.221   1.945  1.00  0.00     0.211 HD
ENDBRANCH  14  15
BRANCH  14  17
ATOM     17  C   UNL     1       5.203   0.691  -0.511  1.00  0.00     0.030 C 
ATOM     18  C   UNL     1       5.198   1.276  -1.934  1.00  0.00     0.012 C 
BRANCH  17  19
ATOM     19  C   UNL     1       5.107  -0.852  -0.587  1.00  0.00     0.095 C 
BRANCH  19  20
ATOM     20  C   UNL     1       5.459  -1.495   0.685  1.00  0.00    -0.103 C 
ATOM     21  C   UNL     1       5.741  -2.026   1.729  1.00  0.00    -0.107 C 
ATOM     22  C   UNL     1       6.077  -2.669   2.998  1.00  0.00     0.107 C 
ENDBRANCH  19  20
ENDBRANCH  17  19
ENDBRANCH  14  17
ENDBRANCH  13  14
ENDBRANCH   4  12
BRANCH   9  23
ATOM     23  C   UNL     1      -5.002  -0.310   0.284  1.00  0.00     0.028 C 
BRANCH  23  24
ATOM     24  C   UNL     1      -6.471   0.130   0.201  1.00  0.00     0.016 C 
BRANCH  24  25
ATOM     25  C   UNL     1      -7.435  -0.982   0.635  1.00  0.00     0.123 C 
BRANCH  25  26
ATOM     26  C   UNL     1      -7.315  -1.286   2.097  1.00  0.00     0.303 C 
ATOM     27  O   UNL     1      -6.929  -2.426   2.476  1.00  0.00    -0.252 OA
BRANCH  26  28
ATOM     28  O   UNL     1      -7.625  -0.309   3.038  1.00  0.00    -0.481 OA
ATOM     29  H   UNL     1      -7.549  -0.499   4.030  1.00  0.00     0.296 HD
ENDBRANCH  26  28
ENDBRANCH  25  26
ENDBRANCH  24  25
ENDBRANCH  23  24
ENDBRANCH   9  23
TORSDOF 12
