REMARK SMILES COC(=O)C1=C(C)NC(C)=C(C(=O)OC)C1c1ccccc1[N+](=O)[O-]
REMARK SMILES IDX 5 1 6 2 7 3 8 4 9 5 10 6 11 7 16 8 3 10 4 11 2 12 1 13 17 14
REMARK SMILES IDX 18 15 22 16 19 17 21 18 20 19 23 20 25 21 24 22 12 23 13 24
REMARK SMILES IDX 14 25 15 26
REMARK H PARENT 8 9
REMARK Flexibility Score: inf
ROOT
ATOM      1  C   UNL     1       1.234  -0.797  -0.615  1.00  0.00     0.069 C 
ATOM      2  C   UNL     1       1.044  -2.108  -0.343  1.00  0.00     0.023 C 
ATOM      3  C   UNL     1       2.191  -3.061  -0.120  1.00  0.00     0.065 C 
ATOM      4  N   UNL     1      -0.286  -2.634  -0.261  1.00  0.00    -0.362 N 
ATOM      5  C   UNL     1      -1.452  -1.852  -0.554  1.00  0.00     0.023 C 
ATOM      6  C   UNL     1      -2.788  -2.551  -0.541  1.00  0.00     0.065 C 
ATOM      7  C   UNL     1      -1.328  -0.532  -0.818  1.00  0.00     0.069 C 
ATOM      8  C   UNL     1       0.047   0.120  -0.886  1.00  0.00     0.105 C 
ATOM      9  H   UNL     1      -0.412  -3.636   0.007  1.00  0.00     0.166 HD
ENDROOT
BRANCH   1  10
ATOM     10  C   UNL     1       2.592  -0.193  -0.699  1.00  0.00     0.336 C 
ATOM     11  O   UNL     1       2.801   0.753  -1.508  1.00  0.00    -0.246 OA
BRANCH  10  12
ATOM     12  O   UNL     1       3.617  -0.626   0.147  1.00  0.00    -0.466 OA
ATOM     13  C   UNL     1       4.924  -0.066   0.121  1.00  0.00     0.282 C 
ENDBRANCH  10  12
ENDBRANCH   1  10
BRANCH   8  14
ATOM     14  C   UNL     1       0.103   1.347   0.020  1.00  0.00     0.042 A 
ATOM     15  C   UNL     1       0.132   2.625  -0.573  1.00  0.00     0.012 A 
ATOM     16  C   UNL     1       0.170   1.253   1.437  1.00  0.00     0.273 A 
ATOM     17  C   UNL     1       0.238   3.776   0.211  1.00  0.00     0.001 A 
ATOM     18  C   UNL     1       0.295   2.419   2.208  1.00  0.00     0.086 A 
ATOM     19  C   UNL     1       0.323   3.673   1.599  1.00  0.00     0.007 A 
BRANCH  16  20
ATOM     20  N   UNL     1       0.136  -0.010   2.107  1.00  0.00     0.063 N 
ATOM     21  O   UNL     1       1.164  -0.349   2.957  1.00  0.00    -0.258 OA
ATOM     22  O   UNL     1      -0.934  -0.648   2.167  1.00  0.00    -0.258 OA
ENDBRANCH  16  20
ENDBRANCH   8  14
BRANCH   7  23
ATOM     23  C   UNL     1      -2.507   0.326  -1.113  1.00  0.00     0.336 C 
ATOM     24  O   UNL     1      -2.404   1.252  -1.963  1.00  0.00    -0.246 OA
BRANCH  23  25
ATOM     25  O   UNL     1      -3.710   0.143  -0.423  1.00  0.00    -0.466 OA
ATOM     26  C   UNL     1      -4.854   0.957  -0.646  1.00  0.00     0.282 C 
ENDBRANCH  23  25
ENDBRANCH   7  23
TORSDOF 6
