REMARK SMILES CN1C(CSCC(F)(F)F)Nc2cc(Cl)c(S(N)(=O)=O)cc2S1(=O)=O
REMARK SMILES IDX 4 1 3 2 1 3 2 4 23 5 11 6 22 7 24 8 25 9 12 10 21 12 13 13
REMARK SMILES IDX 16 14 14 15 15 16 17 17 19 18 20 19 18 20 5 23 6 24 7 25
REMARK SMILES IDX 8 26 9 27 10 28
REMARK H PARENT 11 11 18 21 18 22
REMARK Flexibility Score: inf
ROOT
ATOM      1  C   UNL     1      -2.566   0.609   0.654  1.00  0.00     0.112 C 
ENDROOT
BRANCH   1   2
ATOM      2  C   UNL     1      -1.172   0.540   0.002  1.00  0.00     0.175 C 
ATOM      3  C   UNL     1      -1.570  -1.490  -1.340  1.00  0.00     0.127 C 
ATOM      4  N   UNL     1      -1.213  -0.059  -1.355  1.00  0.00    -0.179 NA
ATOM      5  S   UNL     1       0.364   0.139  -2.073  1.00  0.00     0.246 S 
ATOM      6  N   UNL     1      -0.218  -0.166   0.870  1.00  0.00    -0.367 N 
ATOM      7  C   UNL     1       1.569  -0.182  -0.837  1.00  0.00     0.107 A 
ATOM      8  O   UNL     1       0.512   1.551  -2.567  1.00  0.00    -0.207 OA
ATOM      9  O   UNL     1       0.545  -0.813  -3.223  1.00  0.00    -0.207 OA
ATOM     10  C   UNL     1       1.164  -0.321   0.500  1.00  0.00     0.057 A 
ATOM     11  H   UNL     1      -0.527  -0.499   1.812  1.00  0.00     0.162 HD
ATOM     12  C   UNL     1       2.915  -0.330  -1.184  1.00  0.00     0.047 A 
ATOM     13  C   UNL     1       2.121  -0.617   1.481  1.00  0.00     0.049 A 
ATOM     14  C   UNL     1       3.877  -0.622  -0.206  1.00  0.00     0.102 A 
ATOM     15  C   UNL     1       3.473  -0.756   1.140  1.00  0.00     0.063 A 
ATOM     16  Cl  UNL     1       4.620  -1.077   2.437  1.00  0.00    -0.083 Cl
BRANCH  14  17
ATOM     17  S   UNL     1       5.573  -0.784  -0.691  1.00  0.00     0.239 S 
ATOM     18  O   UNL     1       5.663  -0.993  -2.178  1.00  0.00    -0.207 OA
ATOM     19  O   UNL     1       6.194  -1.971  -0.009  1.00  0.00    -0.207 OA
BRANCH  17  20
ATOM     20  N   UNL     1       6.443   0.655  -0.273  1.00  0.00    -0.225 NA
ATOM     21  H   UNL     1       5.910   1.458  -0.691  1.00  0.00     0.137 HD
ATOM     22  H   UNL     1       6.391   0.764   0.771  1.00  0.00     0.137 HD
ENDBRANCH  17  20
ENDBRANCH  14  17
ENDBRANCH   1   2
BRANCH   1  23
ATOM     23  S   UNL     1      -3.743   1.481  -0.447  1.00  0.00    -0.149 SA
BRANCH  23  24
ATOM     24  C   UNL     1      -5.286   0.735   0.210  1.00  0.00     0.185 C 
BRANCH  24  25
ATOM     25  C   UNL     1      -5.773   1.447   1.475  1.00  0.00     0.397 C 
ATOM     26  F   UNL     1      -5.919   2.804   1.231  1.00  0.00    -0.170 F 
ATOM     27  F   UNL     1      -4.877   1.264   2.512  1.00  0.00    -0.170 F 
ATOM     28  F   UNL     1      -7.004   0.924   1.852  1.00  0.00    -0.170 F 
ENDBRANCH  24  25
ENDBRANCH  23  24
ENDBRANCH   1  23
TORSDOF 6
