REMARK SMILES NC(=O)NC(=O)Cc1ccccc1
REMARK SMILES IDX 7 1 5 2 1 3 2 4 3 7 4 8 6 10 8 11 9 12 13 13 10 14 12 15
REMARK SMILES IDX 11 16
REMARK H PARENT 1 5 1 6 4 9
REMARK Flexibility Score: inf
ROOT
ATOM      1  C   UNL     1       0.062  -1.669   0.324  1.00  0.00     0.136 C 
ENDROOT
BRANCH   1   2
ATOM      2  C   UNL     1       1.147  -1.172  -0.583  1.00  0.00     0.232 C 
ATOM      3  N   UNL     1       4.010   1.348  -0.351  1.00  0.00    -0.351 N 
ATOM      4  C   UNL     1       3.138   0.366  -0.909  1.00  0.00     0.318 C 
ATOM      5  H   UNL     1       4.781   1.757  -0.924  1.00  0.00     0.161 HD
ATOM      6  H   UNL     1       3.887   1.670   0.635  1.00  0.00     0.161 HD
ATOM      7  O   UNL     1       3.308  -0.004  -2.102  1.00  0.00    -0.249 OA
ATOM      8  N   UNL     1       2.082  -0.189  -0.110  1.00  0.00    -0.278 N 
ATOM      9  H   UNL     1       1.987   0.148   0.875  1.00  0.00     0.174 HD
ATOM     10  O   UNL     1       1.201  -1.597  -1.769  1.00  0.00    -0.274 OA
ENDBRANCH   1   2
BRANCH   1  11
ATOM     11  C   UNL     1      -1.103  -0.718   0.304  1.00  0.00    -0.039 A 
ATOM     12  C   UNL     1      -1.182   0.328   1.239  1.00  0.00     0.004 A 
ATOM     13  C   UNL     1      -2.096  -0.835  -0.684  1.00  0.00     0.004 A 
ATOM     14  C   UNL     1      -2.250   1.230   1.198  1.00  0.00     0.000 A 
ATOM     15  C   UNL     1      -3.162   0.069  -0.721  1.00  0.00     0.000 A 
ATOM     16  C   UNL     1      -3.240   1.099   0.220  1.00  0.00     0.000 A 
ENDBRANCH   1  11
TORSDOF 2
