REMARK SMILES Nc1[nH]c(=O)ncc1F
REMARK SMILES IDX 2 1 8 2 9 3 7 4 6 5 4 6 5 7 3 8 1 10
REMARK H PARENT 3 9 1 11 1 12
REMARK Flexibility Score: inf
ROOT
ATOM      1  C   UNL     1       0.651  -0.031  -0.014  1.00  0.00     0.143 A 
ATOM      2  C   UNL     1      -0.119  -1.196   0.092  1.00  0.00     0.181 A 
ATOM      3  F   UNL     1       0.463  -2.419   0.167  1.00  0.00    -0.201 F 
ATOM      4  C   UNL     1      -1.507  -1.078   0.118  1.00  0.00     0.160 A 
ATOM      5  N   UNL     1      -2.085   0.148   0.042  1.00  0.00    -0.199 NA
ATOM      6  C   UNL     1      -1.328   1.272  -0.060  1.00  0.00     0.346 A 
ATOM      7  O   UNL     1      -1.889   2.397  -0.129  1.00  0.00    -0.246 OA
ATOM      8  N   UNL     1       0.030   1.180  -0.088  1.00  0.00    -0.290 N 
ATOM      9  H   UNL     1       0.602   2.052  -0.167  1.00  0.00     0.173 HD
ENDROOT
BRANCH   1  10
ATOM     10  N   UNL     1       2.080  -0.105  -0.045  1.00  0.00    -0.383 N 
ATOM     11  H   UNL     1       2.575  -1.023   0.010  1.00  0.00     0.158 HD
ATOM     12  H   UNL     1       2.654   0.764  -0.124  1.00  0.00     0.158 HD
ENDBRANCH   1  10
TORSDOF 1
