REMARK SMILES CN(C)CCC[C@@]1(c2ccc(F)cc2)OCc2cc(C#N)ccc21
REMARK SMILES IDX 5 1 4 2 2 3 1 4 3 5 6 6 7 7 15 8 24 9 16 10 17 11 23 12
REMARK SMILES IDX 18 13 22 14 19 15 8 16 9 17 14 18 10 19 13 20 11 21 12 22
REMARK SMILES IDX 20 23 21 24
REMARK H PARENT
REMARK Flexibility Score: inf
ROOT
ATOM      1  C   UNL     1       1.316   0.103   0.568  1.00  0.00     0.019 C 
ENDROOT
BRANCH   1   2
ATOM      2  C   UNL     1       2.555   0.398   1.426  1.00  0.00     0.084 C 
BRANCH   2   3
ATOM      3  N   UNL     1       3.765  -0.214   0.833  1.00  0.00    -0.309 NA
ATOM      4  C   UNL     1       4.789  -0.417   1.872  1.00  0.00     0.104 C 
ATOM      5  C   UNL     1       4.321   0.632  -0.239  1.00  0.00     0.104 C 
ENDBRANCH   2   3
ENDBRANCH   1   2
BRANCH   1   6
ATOM      6  C   UNL     1       0.045   0.694   1.207  1.00  0.00     0.047 C 
BRANCH   6   7
ATOM      7  C   UNL     1      -1.296   0.220   0.570  1.00  0.00     0.119 C 
ATOM      8  O   UNL     1      -2.354   0.757   1.365  1.00  0.00    -0.361 OA
ATOM      9  C   UNL     1      -1.453   0.843  -0.785  1.00  0.00    -0.006 A 
ATOM     10  C   UNL     1      -3.004   1.784   0.628  1.00  0.00     0.198 C 
ATOM     11  C   UNL     1      -2.446   1.758  -0.731  1.00  0.00    -0.015 A 
ATOM     12  C   UNL     1      -0.780   0.579  -1.987  1.00  0.00     0.009 A 
ATOM     13  C   UNL     1      -2.833   2.500  -1.848  1.00  0.00     0.026 A 
ATOM     14  C   UNL     1      -1.146   1.300  -3.135  1.00  0.00     0.020 A 
ATOM     15  C   UNL     1      -2.168   2.269  -3.067  1.00  0.00     0.052 A 
BRANCH   7  16
ATOM     16  C   UNL     1      -1.463  -1.309   0.556  1.00  0.00    -0.012 A 
ATOM     17  C   UNL     1      -2.122  -1.975  -0.506  1.00  0.00     0.010 A 
ATOM     18  C   UNL     1      -1.087  -2.078   1.681  1.00  0.00     0.010 A 
ATOM     19  C   UNL     1      -2.310  -3.359  -0.480  1.00  0.00     0.039 A 
ATOM     20  C   UNL     1      -1.285  -3.462   1.704  1.00  0.00     0.039 A 
ATOM     21  C   UNL     1      -1.886  -4.104   0.621  1.00  0.00     0.123 A 
ATOM     22  F   UNL     1      -2.078  -5.446   0.646  1.00  0.00    -0.207 F 
ENDBRANCH   7  16
BRANCH  15  23
ATOM     23  C   UNL     1      -2.548   3.001  -4.245  1.00  0.00     0.099 C 
ATOM     24  N   UNL     1      -2.854   3.589  -5.193  1.00  0.00    -0.192 NA
ENDBRANCH  15  23
ENDBRANCH   6   7
ENDBRANCH   1   6
TORSDOF 6
