REMARK SMILES CCOC(=O)c1ncn2c1CN(C)C(=O)c1cc(F)ccc1-2
REMARK SMILES IDX 4 1 5 2 3 3 2 4 1 5 6 6 10 7 7 8 11 9 9 10 8 11 12 12 22 13
REMARK SMILES IDX 13 14 14 15 16 16 21 17 15 18 17 19 20 20 18 21 19 22
REMARK H PARENT
REMARK Flexibility Score: inf
ROOT
ATOM      1  C   UNL     1       2.639   0.361   0.541  1.00  0.00     0.358 C 
ATOM      2  O   UNL     1       2.713  -0.602   1.349  1.00  0.00    -0.244 OA
ENDROOT
BRANCH   1   3
ATOM      3  O   UNL     1       3.804   0.969   0.059  1.00  0.00    -0.461 OA
BRANCH   3   4
ATOM      4  C   UNL     1       5.118   0.525   0.393  1.00  0.00     0.230 C 
ATOM      5  C   UNL     1       5.469  -0.745  -0.374  1.00  0.00     0.049 C 
ENDBRANCH   3   4
ENDBRANCH   1   3
BRANCH   1   6
ATOM      6  C   UNL     1       1.333   0.862   0.075  1.00  0.00     0.171 A 
ATOM      7  C   UNL     1       0.057   0.469   0.461  1.00  0.00     0.077 A 
ATOM      8  N   UNL     1       1.230   1.813  -0.877  1.00  0.00    -0.229 NA
ATOM      9  C   UNL     1      -0.363  -0.568   1.451  1.00  0.00     0.176 C 
ATOM     10  N   UNL     1      -0.830   1.153  -0.279  1.00  0.00    -0.300 N 
ATOM     11  C   UNL     1      -0.097   1.969  -1.063  1.00  0.00     0.205 A 
ATOM     12  N   UNL     1      -0.980  -1.674   0.722  1.00  0.00    -0.336 N 
ATOM     13  C   UNL     1      -2.267   1.065  -0.218  1.00  0.00     0.060 A 
ATOM     14  C   UNL     1      -0.319  -2.983   0.679  1.00  0.00     0.147 C 
ATOM     15  C   UNL     1      -2.232  -1.491   0.023  1.00  0.00     0.256 C 
ATOM     16  C   UNL     1      -2.938  -0.178  -0.043  1.00  0.00     0.067 A 
ATOM     17  C   UNL     1      -3.025   2.244  -0.344  1.00  0.00     0.030 A 
ATOM     18  O   UNL     1      -2.775  -2.488  -0.529  1.00  0.00    -0.269 OA
ATOM     19  C   UNL     1      -4.346  -0.190  -0.007  1.00  0.00     0.055 A 
ATOM     20  C   UNL     1      -4.418   2.207  -0.295  1.00  0.00     0.041 A 
ATOM     21  C   UNL     1      -5.078   0.993  -0.126  1.00  0.00     0.124 A 
ATOM     22  F   UNL     1      -6.432   0.959  -0.082  1.00  0.00    -0.207 F 
ENDBRANCH   1   6
TORSDOF 3
