REMARK SMILES CCN(CC)CCNC(=O)c1cc(Cl)c(N)cc1OC
REMARK SMILES IDX 7 1 6 2 3 3 2 4 1 5 4 6 5 7 8 8 9 9 10 11 11 12 12 13 18 14
REMARK SMILES IDX 13 15 17 16 14 17 15 18 19 19 20 20 16 21
REMARK H PARENT 8 10 16 22 16 23
REMARK Flexibility Score: inf
ROOT
ATOM      1  C   UNL     1      -1.103   0.569  -0.832  1.00  0.00     0.131 C 
ENDROOT
BRANCH   1   2
ATOM      2  C   UNL     1      -2.062   0.374   0.352  1.00  0.00     0.105 C 
BRANCH   2   3
ATOM      3  N   UNL     1      -3.464   0.672  -0.020  1.00  0.00    -0.302 NA
BRANCH   3   4
ATOM      4  C   UNL     1      -4.349   0.771   1.163  1.00  0.00     0.081 C 
ATOM      5  C   UNL     1      -5.266   1.980   1.021  1.00  0.00     0.021 C 
ENDBRANCH   3   4
BRANCH   3   6
ATOM      6  C   UNL     1      -4.029  -0.206  -1.077  1.00  0.00     0.081 C 
ATOM      7  C   UNL     1      -3.862  -1.710  -0.810  1.00  0.00     0.021 C 
ENDBRANCH   3   6
ENDBRANCH   2   3
ENDBRANCH   1   2
BRANCH   1   8
ATOM      8  N   UNL     1       0.285   0.494  -0.382  1.00  0.00    -0.351 N 
ATOM      9  C   UNL     1       0.929  -0.753  -0.074  1.00  0.00     0.255 C 
ATOM     10  H   UNL     1       0.814   1.389  -0.274  1.00  0.00     0.163 HD
ATOM     11  O   UNL     1       0.259  -1.822  -0.070  1.00  0.00    -0.269 OA
BRANCH   9  12
ATOM     12  C   UNL     1       2.366  -0.799   0.275  1.00  0.00     0.083 A 
ATOM     13  C   UNL     1       2.787  -1.644   1.314  1.00  0.00     0.040 A 
ATOM     14  C   UNL     1       3.320  -0.032  -0.427  1.00  0.00     0.133 A 
ATOM     15  C   UNL     1       4.132  -1.709   1.687  1.00  0.00     0.065 A 
ATOM     16  C   UNL     1       4.673  -0.095  -0.041  1.00  0.00     0.074 A 
ATOM     17  Cl  UNL     1       4.582  -2.780   3.009  1.00  0.00    -0.082 Cl
ATOM     18  C   UNL     1       5.086  -0.925   1.011  1.00  0.00     0.054 A 
BRANCH  14  19
ATOM     19  O   UNL     1       2.902   0.756  -1.512  1.00  0.00    -0.496 OA
ATOM     20  C   UNL     1       3.760   1.573  -2.301  1.00  0.00     0.278 C 
ENDBRANCH  14  19
BRANCH  18  21
ATOM     21  N   UNL     1       6.472  -0.965   1.372  1.00  0.00    -0.397 N 
ATOM     22  H   UNL     1       7.171  -0.380   0.861  1.00  0.00     0.156 HD
ATOM     23  H   UNL     1       6.825  -1.568   2.147  1.00  0.00     0.156 HD
ENDBRANCH  18  21
ENDBRANCH   9  12
ENDBRANCH   1   8
TORSDOF 8
