REMARK SMILES CNC(C)Cc1ccc2c(c1)OCO2
REMARK SMILES IDX 3 1 4 2 2 3 1 4 5 6 6 7 11 8 7 9 10 10 8 11 9 12 12 13 14 14
REMARK SMILES IDX 13 15
REMARK H PARENT 2 5
REMARK Flexibility Score: inf
ROOT
ATOM      1  C   UNL     1      -1.768  -0.743   0.067  1.00  0.00     0.054 C 
ATOM      2  C   UNL     1      -2.136   0.192   1.235  1.00  0.00     0.024 C 
ENDROOT
BRANCH   1   3
ATOM      3  N   UNL     1      -2.950  -1.408  -0.523  1.00  0.00    -0.317 NA
ATOM      4  C   UNL     1      -3.983  -0.488  -1.013  1.00  0.00     0.101 C 
ATOM      5  H   UNL     1      -3.385  -2.022   0.205  1.00  0.00     0.122 HD
ENDBRANCH   1   3
BRANCH   1   6
ATOM      6  C   UNL     1      -0.931  -0.026  -1.015  1.00  0.00     0.054 C 
BRANCH   6   7
ATOM      7  C   UNL     1       0.458   0.296  -0.527  1.00  0.00    -0.043 A 
ATOM      8  C   UNL     1       1.458  -0.703  -0.532  1.00  0.00     0.054 A 
ATOM      9  C   UNL     1       0.761   1.589  -0.025  1.00  0.00     0.008 A 
ATOM     10  C   UNL     1       2.719  -0.367  -0.047  1.00  0.00     0.166 A 
ATOM     11  C   UNL     1       2.049   1.885   0.456  1.00  0.00     0.051 A 
ATOM     12  C   UNL     1       3.003   0.873   0.425  1.00  0.00     0.165 A 
ATOM     13  O   UNL     1       3.844  -1.164   0.046  1.00  0.00    -0.454 OA
ATOM     14  O   UNL     1       4.320   0.918   0.839  1.00  0.00    -0.454 OA
ATOM     15  C   UNL     1       4.900  -0.374   0.612  1.00  0.00     0.468 C 
ENDBRANCH   6   7
ENDBRANCH   1   6
TORSDOF 3
