REMARK SMILES CCC1NC(=O)c2cc(S(N)(=O)=O)c(Cl)cc2N1
REMARK SMILES IDX 3 1 4 2 5 3 6 4 7 5 8 6 9 7 14 8 15 9 16 10 17 11 18 12 2 15
REMARK SMILES IDX 1 16 10 17 12 18 13 19 11 20
REMARK H PARENT 4 13 18 14 11 21 11 22
REMARK Flexibility Score: inf
ROOT
ATOM      1  C   UNL     1      -2.389  -0.427  -0.348  1.00  0.00     0.175 C 
ATOM      2  N   UNL     1      -1.763  -1.682   0.085  1.00  0.00    -0.332 N 
ATOM      3  C   UNL     1      -0.344  -1.828   0.187  1.00  0.00     0.255 C 
ATOM      4  O   UNL     1       0.156  -2.975   0.342  1.00  0.00    -0.269 OA
ATOM      5  C   UNL     1       0.515  -0.636   0.129  1.00  0.00     0.064 A 
ATOM      6  C   UNL     1       1.914  -0.731   0.201  1.00  0.00     0.039 A 
ATOM      7  C   UNL     1       2.712   0.423   0.172  1.00  0.00     0.101 A 
ATOM      8  C   UNL     1       2.093   1.686   0.065  1.00  0.00     0.063 A 
ATOM      9  Cl  UNL     1       3.025   3.178   0.010  1.00  0.00    -0.083 Cl
ATOM     10  C   UNL     1       0.698   1.776  -0.006  1.00  0.00     0.048 A 
ATOM     11  C   UNL     1      -0.094   0.620   0.019  1.00  0.00     0.050 A 
ATOM     12  N   UNL     1      -1.525   0.726  -0.053  1.00  0.00    -0.365 N 
ATOM     13  H   UNL     1      -2.343  -2.551   0.109  1.00  0.00     0.165 HD
ATOM     14  H   UNL     1      -1.935   1.684  -0.117  1.00  0.00     0.162 HD
ENDROOT
BRANCH   1  15
ATOM     15  C   UNL     1      -3.756  -0.271   0.349  1.00  0.00     0.044 C 
ATOM     16  C   UNL     1      -4.635   0.797  -0.303  1.00  0.00     0.008 C 
ENDBRANCH   1  15
BRANCH   7  17
ATOM     17  S   UNL     1       4.472   0.276   0.263  1.00  0.00     0.239 S 
ATOM     18  O   UNL     1       4.983   1.081   1.425  1.00  0.00    -0.207 OA
ATOM     19  O   UNL     1       5.079   0.790  -1.011  1.00  0.00    -0.207 OA
BRANCH  17  20
ATOM     20  N   UNL     1       4.942  -1.376   0.480  1.00  0.00    -0.225 NA
ATOM     21  H   UNL     1       4.655  -1.652   1.446  1.00  0.00     0.137 HD
ATOM     22  H   UNL     1       5.986  -1.401   0.459  1.00  0.00     0.137 HD
ENDBRANCH  17  20
ENDBRANCH   7  17
TORSDOF 3
