REMARK SMILES C[N+](C)(C)CCO.Cn1c(=O)c2[n-]cnc2n(C)c1=O
REMARK SMILES IDX 5 1 2 2 1 3 3 4 4 5 6 6 7 7
REMARK H PARENT 7 8
REMARK Flexibility Score: inf
ROOT
ATOM      1  C   UNL     1       0.740   0.061  -0.704  1.00  0.00     0.291 C 
ENDROOT
BRANCH   1   2
ATOM      2  N   UNL     1      -0.624  -0.033  -0.098  1.00  0.00    -0.329 N 
ATOM      3  C   UNL     1      -0.778  -1.278   0.694  1.00  0.00     0.334 C 
ATOM      4  C   UNL     1      -0.916   1.141   0.759  1.00  0.00     0.334 C 
ATOM      5  C   UNL     1      -1.614  -0.060  -1.203  1.00  0.00     0.334 C 
ENDBRANCH   1   2
BRANCH   1   6
ATOM      6  C   UNL     1       1.907   0.101   0.301  1.00  0.00     0.217 C 
BRANCH   6   7
ATOM      7  O   UNL     1       3.114   0.189  -0.404  1.00  0.00    -0.391 OA
ATOM      8  H   UNL     1       3.834   0.212   0.279  1.00  0.00     0.210 HD
ENDBRANCH   6   7
ENDBRANCH   1   6
TORSDOF 3
