REMARK SMILES CCCCNC(=O)NS(=O)(=O)c1ccc(C)cc1
REMARK SMILES IDX 5 1 6 2 7 3 8 4 4 7 3 8 2 9 1 10 9 11 10 12 11 13 12 14
REMARK SMILES IDX 13 15 18 16 14 17 17 18 15 19 16 20
REMARK H PARENT 5 5 8 6
REMARK Flexibility Score: inf
ROOT
ATOM      1  N   UNL     1       2.354  -0.404   0.396  1.00  0.00    -0.337 N 
ATOM      2  C   UNL     1       1.237  -1.297   0.490  1.00  0.00     0.328 C 
ATOM      3  O   UNL     1       1.419  -2.509   0.786  1.00  0.00    -0.248 OA
ATOM      4  N   UNL     1      -0.085  -0.808   0.248  1.00  0.00    -0.231 N 
ATOM      5  H   UNL     1       2.170   0.598   0.162  1.00  0.00     0.165 HD
ATOM      6  H   UNL     1      -0.228   0.197   0.003  1.00  0.00     0.185 HD
ENDROOT
BRANCH   1   7
ATOM      7  C   UNL     1       3.722  -0.864   0.641  1.00  0.00     0.117 C 
BRANCH   7   8
ATOM      8  C   UNL     1       4.744   0.259   0.425  1.00  0.00     0.021 C 
BRANCH   8   9
ATOM      9  C   UNL     1       4.888   0.627  -1.059  1.00  0.00    -0.002 C 
ATOM     10  C   UNL     1       5.921   1.733  -1.253  1.00  0.00     0.004 C 
ENDBRANCH   8   9
ENDBRANCH   7   8
ENDBRANCH   1   7
BRANCH   4  11
ATOM     11  S   UNL     1      -1.472  -1.841   0.346  1.00  0.00     0.265 S 
ATOM     12  O   UNL     1      -1.579  -2.417   1.730  1.00  0.00    -0.201 OA
ATOM     13  O   UNL     1      -1.340  -2.964  -0.645  1.00  0.00    -0.201 OA
BRANCH  11  14
ATOM     14  C   UNL     1      -2.917  -0.904  -0.015  1.00  0.00     0.087 A 
ATOM     15  C   UNL     1      -3.610  -0.252   1.013  1.00  0.00     0.022 A 
ATOM     16  C   UNL     1      -3.369  -0.786  -1.337  1.00  0.00     0.022 A 
ATOM     17  C   UNL     1      -4.750   0.504   0.725  1.00  0.00     0.005 A 
ATOM     18  C   UNL     1      -4.509  -0.030  -1.626  1.00  0.00     0.005 A 
ATOM     19  C   UNL     1      -5.199   0.631  -0.599  1.00  0.00    -0.051 A 
ATOM     20  C   UNL     1      -6.444   1.410  -0.903  1.00  0.00     0.044 C 
ENDBRANCH  11  14
ENDBRANCH   4  11
TORSDOF 5
