REMARK SMILES COc1cc2nc(N3CCN(C(=O)C4CCCO4)CC3)nc(N)c2cc1OC
REMARK SMILES IDX 8 1 9 2 10 3 11 4 19 5 20 6 12 7 13 8 7 9 3 10 26 11 4 12
REMARK SMILES IDX 25 13 5 14 24 15 6 16 22 17 21 18 2 19 1 20 27 21 28 22
REMARK SMILES IDX 23 23 14 26 15 27 18 28 16 29 17 30
REMARK H PARENT 23 24 23 25
REMARK Flexibility Score: inf
ROOT
ATOM      1  N   UNL     1      -0.624   0.334  -0.865  1.00  0.00    -0.337 N 
ATOM      2  C   UNL     1      -1.289  -0.604   0.049  1.00  0.00     0.141 C 
ATOM      3  C   UNL     1      -2.490   0.067   0.718  1.00  0.00     0.141 C 
ATOM      4  N   UNL     1      -3.336   0.743  -0.280  1.00  0.00    -0.337 N 
ATOM      5  C   UNL     1      -2.670   1.648  -1.230  1.00  0.00     0.141 C 
ATOM      6  C   UNL     1      -1.469   0.965  -1.887  1.00  0.00     0.141 C 
ATOM      7  C   UNL     1      -4.776   0.815  -0.126  1.00  0.00     0.251 C 
ATOM      8  O   UNL     1      -5.477   1.310  -1.052  1.00  0.00    -0.272 OA
ENDROOT
BRANCH   1   9
ATOM      9  C   UNL     1       0.817   0.376  -0.962  1.00  0.00     0.228 A 
ATOM     10  C   UNL     1       5.088  -0.864   0.854  1.00  0.00     0.162 A 
ATOM     11  C   UNL     1       5.748  -0.149  -0.157  1.00  0.00     0.161 A 
ATOM     12  C   UNL     1       3.683  -0.902   0.873  1.00  0.00     0.079 A 
ATOM     13  C   UNL     1       5.000   0.521  -1.147  1.00  0.00     0.064 A 
ATOM     14  C   UNL     1       2.941  -0.233  -0.102  1.00  0.00     0.082 A 
ATOM     15  C   UNL     1       3.590   0.484  -1.132  1.00  0.00     0.047 A 
ATOM     16  N   UNL     1       1.586  -0.267  -0.046  1.00  0.00    -0.213 NA
ATOM     17  C   UNL     1       2.774   1.142  -2.086  1.00  0.00     0.137 A 
ATOM     18  N   UNL     1       1.422   1.068  -1.966  1.00  0.00    -0.195 NA
BRANCH  10  19
ATOM     19  O   UNL     1       5.864  -1.522   1.820  1.00  0.00    -0.493 OA
ATOM     20  C   UNL     1       5.333  -2.254   2.919  1.00  0.00     0.278 C 
ENDBRANCH  10  19
BRANCH  11  21
ATOM     21  O   UNL     1       7.152  -0.125  -0.139  1.00  0.00    -0.493 OA
ATOM     22  C   UNL     1       7.966   0.520  -1.114  1.00  0.00     0.278 C 
ENDBRANCH  11  21
BRANCH  17  23
ATOM     23  N   UNL     1       3.310   1.898  -3.180  1.00  0.00    -0.383 N 
ATOM     24  H   UNL     1       4.324   1.945  -3.413  1.00  0.00     0.158 HD
ATOM     25  H   UNL     1       2.657   2.411  -3.814  1.00  0.00     0.158 HD
ENDBRANCH  17  23
ENDBRANCH   1   9
BRANCH   7  26
ATOM     26  C   UNL     1      -5.485   0.269   1.093  1.00  0.00     0.207 C 
ATOM     27  C   UNL     1      -5.746  -1.230   0.950  1.00  0.00     0.044 C 
ATOM     28  O   UNL     1      -6.716   0.942   1.268  1.00  0.00    -0.368 OA
ATOM     29  C   UNL     1      -7.223  -1.310   0.718  1.00  0.00     0.032 C 
ATOM     30  C   UNL     1      -7.727  -0.034   1.351  1.00  0.00     0.161 C 
ENDBRANCH   7  26
TORSDOF 5
