REMARK SMILES CC(C)(Sc1cc(C(C)(C)C)c(O)c(C(C)(C)C)c1)Sc1cc(C(C)(C)C)c(O)c(C(C)(C)C)c1
REMARK SMILES IDX 1 1 2 2 3 3 4 4 5 5 19 6 6 7 14 8 7 9 12 10 15 11 16 12
REMARK SMILES IDX 17 13 18 14 8 15 9 16 10 17 11 18 13 19 20 21 21 22 35 23
REMARK SMILES IDX 22 24 30 25 23 26 28 27 31 28 32 29 33 30 34 31 24 32 25 33
REMARK SMILES IDX 26 34 27 35 29 36
REMARK H PARENT 13 20 29 37
REMARK Flexibility Score: inf
ROOT
ATOM      1  C   UNL     1      -0.037  -1.228   0.793  1.00  0.00     0.035 C 
ATOM      2  C   UNL     1      -0.098  -0.027   1.753  1.00  0.00     0.065 C 
ATOM      3  C   UNL     1      -0.061   1.296   0.970  1.00  0.00     0.035 C 
ENDROOT
BRANCH   2   4
ATOM      4  S   UNL     1       1.295  -0.085   2.963  1.00  0.00    -0.109 SA
BRANCH   4   5
ATOM      5  C   UNL     1       2.701  -0.125   1.837  1.00  0.00     0.009 A 
ATOM      6  C   UNL     1       3.220  -1.343   1.432  1.00  0.00     0.023 A 
ATOM      7  C   UNL     1       3.307   1.059   1.444  1.00  0.00     0.023 A 
ATOM      8  C   UNL     1       4.329  -1.421   0.565  1.00  0.00     0.001 A 
ATOM      9  C   UNL     1       4.413   1.078   0.562  1.00  0.00     0.001 A 
ATOM     10  C   UNL     1       4.934  -0.198   0.136  1.00  0.00     0.123 A 
BRANCH   8  11
ATOM     11  C   UNL     1       4.869  -2.807   0.097  1.00  0.00    -0.009 C 
ATOM     12  C   UNL     1       4.061  -4.003   0.668  1.00  0.00     0.016 C 
ATOM     13  C   UNL     1       4.786  -2.919  -1.444  1.00  0.00     0.016 C 
ATOM     14  C   UNL     1       6.331  -2.999   0.565  1.00  0.00     0.016 C 
ENDBRANCH   8  11
BRANCH   9  15
ATOM     15  C   UNL     1       4.997   2.450   0.098  1.00  0.00    -0.009 C 
ATOM     16  C   UNL     1       6.438   2.638   0.638  1.00  0.00     0.016 C 
ATOM     17  C   UNL     1       4.197   3.673   0.633  1.00  0.00     0.016 C 
ATOM     18  C   UNL     1       4.930   2.580  -1.447  1.00  0.00     0.016 C 
ENDBRANCH   9  15
BRANCH  10  19
ATOM     19  O   UNL     1       6.047  -0.310  -0.702  1.00  0.00    -0.507 OA
ATOM     20  H   UNL     1       6.645   0.426  -1.033  1.00  0.00     0.293 HD
ENDBRANCH  10  19
ENDBRANCH   4   5
ENDBRANCH   2   4
BRANCH   2  21
ATOM     21  S   UNL     1      -1.619  -0.117   2.795  1.00  0.00    -0.109 SA
BRANCH  21  22
ATOM     22  C   UNL     1      -2.891  -0.023   1.523  1.00  0.00     0.009 A 
ATOM     23  C   UNL     1      -3.401  -1.188   0.967  1.00  0.00     0.023 A 
ATOM     24  C   UNL     1      -3.404   1.212   1.149  1.00  0.00     0.023 A 
ATOM     25  C   UNL     1      -4.438  -1.155   0.012  1.00  0.00     0.001 A 
ATOM     26  C   UNL     1      -4.397   1.330   0.152  1.00  0.00     0.001 A 
ATOM     27  C   UNL     1      -4.998   0.116  -0.316  1.00  0.00     0.123 A 
BRANCH  25  28
ATOM     28  C   UNL     1      -4.994  -2.472  -0.604  1.00  0.00    -0.009 C 
ATOM     29  C   UNL     1      -4.136  -3.715  -0.248  1.00  0.00     0.016 C 
ATOM     30  C   UNL     1      -6.422  -2.739  -0.081  1.00  0.00     0.016 C 
ATOM     31  C   UNL     1      -5.006  -2.381  -2.151  1.00  0.00     0.016 C 
ENDBRANCH  25  28
BRANCH  26  32
ATOM     32  C   UNL     1      -4.785   2.743  -0.379  1.00  0.00    -0.009 C 
ATOM     33  C   UNL     1      -6.018   3.270   0.382  1.00  0.00     0.016 C 
ATOM     34  C   UNL     1      -3.637   3.775  -0.170  1.00  0.00     0.016 C 
ATOM     35  C   UNL     1      -5.057   2.726  -1.910  1.00  0.00     0.016 C 
ENDBRANCH  26  32
BRANCH  27  36
ATOM     36  O   UNL     1      -6.171   0.136  -1.068  1.00  0.00    -0.507 OA
ATOM     37  H   UNL     1      -6.893   0.828  -0.953  1.00  0.00     0.293 HD
ENDBRANCH  27  36
ENDBRANCH  21  22
ENDBRANCH   2  21
TORSDOF 10
