REMARK SMILES CC[N+](C)(C)c1cccc(O)c1
REMARK SMILES IDX 6 1 12 2 10 3 9 4 8 5 7 6 3 7 4 8 5 9 2 10 1 11 11 12
REMARK H PARENT 11 13
REMARK Flexibility Score: inf
ROOT
ATOM      1  C   UNL     1       0.391  -0.317  -0.062  1.00  0.00     0.136 A 
ATOM      2  C   UNL     1       1.188   0.345   0.908  1.00  0.00     0.114 A 
ATOM      3  C   UNL     1       2.574   0.479   0.749  1.00  0.00     0.121 A 
ATOM      4  C   UNL     1       3.199  -0.052  -0.377  1.00  0.00     0.046 A 
ATOM      5  C   UNL     1       2.449  -0.722  -1.339  1.00  0.00     0.010 A 
ATOM      6  C   UNL     1       1.067  -0.861  -1.189  1.00  0.00     0.068 A 
ENDROOT
BRANCH   1   7
ATOM      7  N   UNL     1      -1.068  -0.446   0.138  1.00  0.00    -0.296 N 
ATOM      8  C   UNL     1      -1.764  -1.115  -0.997  1.00  0.00     0.340 C 
ATOM      9  C   UNL     1      -1.298  -1.290   1.338  1.00  0.00     0.340 C 
BRANCH   7  10
ATOM     10  C   UNL     1      -1.705   0.890   0.371  1.00  0.00     0.265 C 
ATOM     11  C   UNL     1      -1.455   1.916  -0.748  1.00  0.00     0.072 C 
ENDBRANCH   7  10
ENDBRANCH   1   7
BRANCH   3  12
ATOM     12  O   UNL     1       3.338   1.139   1.709  1.00  0.00    -0.508 OA
ATOM     13  H   UNL     1       2.918   1.538   2.540  1.00  0.00     0.293 HD
ENDBRANCH   3  12
TORSDOF 3
