REMARK SMILES CC(C)(C)NC(=O)[C@H]1CC[C@H]2[C@@H]3CC[C@H]4NC(=O)C=C[C@]4(C)[C@H]3CC[C@]12C
REMARK SMILES IDX 6 1 7 2 5 3 8 5 11 6 10 7 26 8 12 9 9 10 27 11 25 12 23 13
REMARK SMILES IDX 13 14 24 15 21 16 14 17 15 18 20 19 22 20 16 21 19 22 17 23
REMARK SMILES IDX 18 25 2 26 1 27 3 28 4 29
REMARK H PARENT 5 4 16 24
REMARK Flexibility Score: inf
ROOT
ATOM      1  C   UNL     1       3.431  -0.069  -0.259  1.00  0.00     0.224 C 
ATOM      2  O   UNL     1       4.026   0.298  -1.308  1.00  0.00    -0.275 OA
ATOM      3  N   UNL     1       3.755  -1.325   0.364  1.00  0.00    -0.351 N 
ATOM      4  H   UNL     1       3.280  -1.533   1.273  1.00  0.00     0.163 HD
ENDROOT
BRANCH   1   5
ATOM      5  C   UNL     1       2.316   0.777   0.318  1.00  0.00     0.084 C 
ATOM      6  C   UNL     1       0.107   1.605   0.309  1.00  0.00    -0.001 C 
ATOM      7  C   UNL     1       0.952   2.788  -0.151  1.00  0.00     0.005 C 
ATOM      8  C   UNL     1       0.897   0.366  -0.136  1.00  0.00    -0.018 C 
ATOM      9  C   UNL     1      -1.382   1.537  -0.088  1.00  0.00    -0.003 C 
ATOM     10  C   UNL     1       2.404   2.288  -0.019  1.00  0.00     0.014 C 
ATOM     11  C   UNL     1       0.875   0.124  -1.682  1.00  0.00     0.012 C 
ATOM     12  C   UNL     1       0.311  -0.861   0.600  1.00  0.00     0.008 C 
ATOM     13  C   UNL     1      -2.016   0.286   0.623  1.00  0.00     0.004 C 
ATOM     14  C   UNL     1      -2.120   2.834   0.302  1.00  0.00     0.006 C 
ATOM     15  C   UNL     1      -1.204  -1.015   0.319  1.00  0.00     0.005 C 
ATOM     16  C   UNL     1      -3.559   0.175   0.337  1.00  0.00     0.009 C 
ATOM     17  C   UNL     1      -3.619   2.736  -0.002  1.00  0.00     0.026 C 
ATOM     18  C   UNL     1      -4.224   1.534   0.736  1.00  0.00     0.092 C 
ATOM     19  C   UNL     1      -4.223  -0.905   1.196  1.00  0.00    -0.012 C 
ATOM     20  C   UNL     1      -3.846  -0.182  -1.148  1.00  0.00     0.018 C 
ATOM     21  N   UNL     1      -5.676   1.456   0.563  1.00  0.00    -0.349 N 
ATOM     22  C   UNL     1      -5.538  -0.872   1.465  1.00  0.00     0.067 C 
ATOM     23  C   UNL     1      -6.345   0.290   1.053  1.00  0.00     0.243 C 
ATOM     24  H   UNL     1      -6.220   2.236   0.128  1.00  0.00     0.164 HD
ATOM     25  O   UNL     1      -7.601   0.258   1.131  1.00  0.00    -0.270 OA
ENDBRANCH   1   5
BRANCH   3  26
ATOM     26  C   UNL     1       4.641  -2.354  -0.214  1.00  0.00     0.032 C 
ATOM     27  C   UNL     1       4.670  -3.577   0.725  1.00  0.00     0.034 C 
ATOM     28  C   UNL     1       4.106  -2.805  -1.588  1.00  0.00     0.034 C 
ATOM     29  C   UNL     1       6.076  -1.808  -0.350  1.00  0.00     0.034 C 
ENDBRANCH   3  26
TORSDOF 2
