REMARK SMILES CC(C)Cc1ccc(C(C)C(=O)O)cc1
REMARK SMILES IDX 5 1 6 2 7 3 8 4 14 5 15 6 4 7 2 8 1 9 3 10 9 11 10 12 11 13
REMARK SMILES IDX 12 14 13 15
REMARK H PARENT 13 16
REMARK Flexibility Score: inf
ROOT
ATOM      1  C   UNL     1      -0.998  -0.899   0.238  1.00  0.00    -0.048 A 
ATOM      2  C   UNL     1      -0.469  -1.122  -1.043  1.00  0.00     0.004 A 
ATOM      3  C   UNL     1       0.863  -0.808  -1.324  1.00  0.00     0.005 A 
ATOM      4  C   UNL     1       1.695  -0.269  -0.328  1.00  0.00    -0.034 A 
ATOM      5  C   UNL     1       1.163  -0.049   0.957  1.00  0.00     0.005 A 
ATOM      6  C   UNL     1      -0.170  -0.363   1.236  1.00  0.00     0.004 A 
ENDROOT
BRANCH   1   7
ATOM      7  C   UNL     1      -2.443  -1.225   0.536  1.00  0.00     0.038 C 
BRANCH   7   8
ATOM      8  C   UNL     1      -3.416  -0.052   0.274  1.00  0.00    -0.013 C 
ATOM      9  C   UNL     1      -3.129   1.156   1.176  1.00  0.00     0.008 C 
ATOM     10  C   UNL     1      -3.442   0.366  -1.202  1.00  0.00     0.008 C 
ENDBRANCH   7   8
ENDBRANCH   1   7
BRANCH   4  11
ATOM     11  C   UNL     1       3.136   0.076  -0.646  1.00  0.00     0.126 C 
ATOM     12  C   UNL     1       3.380   1.586  -0.537  1.00  0.00     0.025 C 
BRANCH  11  13
ATOM     13  C   UNL     1       4.075  -0.702   0.236  1.00  0.00     0.310 C 
ATOM     14  O   UNL     1       4.513  -1.819  -0.150  1.00  0.00    -0.252 OA
BRANCH  13  15
ATOM     15  O   UNL     1       4.425  -0.222   1.495  1.00  0.00    -0.481 OA
ATOM     16  H   UNL     1       5.042  -0.752   2.100  1.00  0.00     0.296 HD
ENDBRANCH  13  15
ENDBRANCH  11  13
ENDBRANCH   4  11
TORSDOF 5
