REMARK SMILES CCCCC1(CC)C(=O)NC(=O)NC1=O
REMARK SMILES IDX 4 1 3 2 2 3 1 4 5 5 8 6 14 7 9 8 10 9 13 10 15 11 11 12
REMARK SMILES IDX 12 15 6 16 7 17
REMARK H PARENT 10 13 13 14
REMARK Flexibility Score: inf
ROOT
ATOM      1  C   UNL     1       0.699  -0.962  -0.582  1.00  0.00     0.027 C 
ENDROOT
BRANCH   1   2
ATOM      2  C   UNL     1       1.650  -1.098   0.635  1.00  0.00     0.001 C 
BRANCH   2   3
ATOM      3  C   UNL     1       2.489   0.136   1.002  1.00  0.00    -0.003 C 
ATOM      4  C   UNL     1       3.348   0.651  -0.153  1.00  0.00     0.004 C 
ENDBRANCH   2   3
ENDBRANCH   1   2
BRANCH   1   5
ATOM      5  C   UNL     1      -0.579  -0.064  -0.449  1.00  0.00     0.128 C 
ATOM      6  C   UNL     1      -1.560  -0.559  -1.513  1.00  0.00     0.243 C 
ATOM      7  C   UNL     1      -1.185  -0.201   0.947  1.00  0.00     0.243 C 
ATOM      8  O   UNL     1      -1.371  -0.258  -2.724  1.00  0.00    -0.273 OA
ATOM      9  N   UNL     1      -2.629  -1.453  -1.189  1.00  0.00    -0.277 N 
ATOM     10  N   UNL     1      -2.213  -1.155   1.222  1.00  0.00    -0.277 N 
ATOM     11  O   UNL     1      -0.735   0.493   1.899  1.00  0.00    -0.273 OA
ATOM     12  C   UNL     1      -2.923  -1.790   0.163  1.00  0.00     0.328 C 
ATOM     13  H   UNL     1      -3.208  -1.862  -1.957  1.00  0.00     0.174 HD
ATOM     14  H   UNL     1      -2.494  -1.340   2.211  1.00  0.00     0.174 HD
ATOM     15  O   UNL     1      -3.826  -2.629   0.423  1.00  0.00    -0.248 OA
BRANCH   5  16
ATOM     16  C   UNL     1      -0.242   1.434  -0.745  1.00  0.00     0.023 C 
ATOM     17  C   UNL     1      -1.465   2.360  -0.744  1.00  0.00     0.005 C 
ENDBRANCH   5  16
ENDBRANCH   1   5
TORSDOF 4
