REMARK SMILES C[C@]12CC[C@H]3[C@@H](CCC4=CC(=O)C=C[C@@]43C)[C@@H]1CC[C@@H]2O
REMARK SMILES IDX 17 1 18 2 19 3 20 4 2 5 1 6 3 7 4 8 5 9 6 10 7 11 8 12 9 13
REMARK SMILES IDX 10 14 11 15 12 16 13 17 14 18 15 19 16 20 21 21
REMARK H PARENT 21 22
REMARK Flexibility Score: inf
ROOT
ATOM      1  C   UNL     1      -1.480  -0.314   0.853  1.00  0.00     0.001 C 
ATOM      2  C   UNL     1      -2.377  -1.341   1.537  1.00  0.00     0.007 C 
ATOM      3  C   UNL     1      -3.802  -0.799   1.319  1.00  0.00     0.032 C 
ATOM      4  C   UNL     1      -3.677   0.395   0.347  1.00  0.00     0.120 C 
ATOM      5  C   UNL     1      -2.314   0.183  -0.341  1.00  0.00    -0.003 C 
ATOM      6  C   UNL     1      -2.472  -0.861  -1.496  1.00  0.00     0.014 C 
ATOM      7  C   UNL     1      -1.660   1.471  -0.886  1.00  0.00     0.010 C 
ATOM      8  C   UNL     1      -0.179   1.232  -1.281  1.00  0.00     0.006 C 
ATOM      9  C   UNL     1       0.654   0.586  -0.129  1.00  0.00     0.006 C 
ATOM     10  C   UNL     1      -0.043  -0.699   0.437  1.00  0.00    -0.003 C 
ATOM     11  C   UNL     1       0.772  -1.379   1.577  1.00  0.00     0.009 C 
ATOM     12  C   UNL     1       2.036  -0.630   2.026  1.00  0.00     0.032 C 
ATOM     13  C   UNL     1       2.844  -0.046   0.886  1.00  0.00    -0.056 C 
ATOM     14  C   UNL     1       4.125   0.281   1.122  1.00  0.00     0.052 C 
ATOM     15  C   UNL     1       4.851   1.153   0.195  1.00  0.00     0.178 C 
ATOM     16  O   UNL     1       6.081   1.371   0.355  1.00  0.00    -0.290 OA
ATOM     17  C   UNL     1       4.111   1.831  -0.870  1.00  0.00     0.048 C 
ATOM     18  C   UNL     1       2.836   1.514  -1.107  1.00  0.00    -0.012 C 
ATOM     19  C   UNL     1       2.165   0.306  -0.449  1.00  0.00     0.010 C 
ATOM     20  C   UNL     1       2.354  -0.881  -1.422  1.00  0.00     0.021 C 
ENDROOT
BRANCH   4  21
ATOM     21  O   UNL     1      -4.741   0.431  -0.570  1.00  0.00    -0.393 OA
ATOM     22  H   UNL     1      -5.546   0.699  -0.055  1.00  0.00     0.210 HD
ENDBRANCH   4  21
TORSDOF 1
