REMARK SMILES O=C(O)CCCCO/N=C(/c1cccnc1)c1cccc(C(F)(F)F)c1
REMARK SMILES IDX 6 1 5 2 4 3 2 4 1 5 3 6 7 8 8 9 9 10 10 11 11 12 16 13 12 14
REMARK SMILES IDX 15 15 13 16 14 17 17 18 26 19 18 20 21 21 19 22 20 23 22 24
REMARK SMILES IDX 23 25 24 26 25 27
REMARK H PARENT 3 7
REMARK Flexibility Score: inf
ROOT
ATOM      1  C   UNL     1       2.917  -1.065   0.782  1.00  0.00     0.045 C 
ENDROOT
BRANCH   1   2
ATOM      2  C   UNL     1       2.901  -0.930  -0.748  1.00  0.00     0.015 C 
BRANCH   2   3
ATOM      3  C   UNL     1       3.573  -2.119  -1.444  1.00  0.00     0.122 C 
BRANCH   3   4
ATOM      4  C   UNL     1       5.047  -2.161  -1.181  1.00  0.00     0.303 C 
ATOM      5  O   UNL     1       5.542  -3.104  -0.508  1.00  0.00    -0.252 OA
BRANCH   4   6
ATOM      6  O   UNL     1       5.871  -1.160  -1.683  1.00  0.00    -0.481 OA
ATOM      7  H   UNL     1       6.870  -1.178  -1.510  1.00  0.00     0.296 HD
ENDBRANCH   4   6
ENDBRANCH   3   4
ENDBRANCH   2   3
ENDBRANCH   1   2
BRANCH   1   8
ATOM      8  C   UNL     1       2.155   0.075   1.459  1.00  0.00     0.264 C 
BRANCH   8   9
ATOM      9  O   UNL     1       0.792   0.047   1.067  1.00  0.00    -0.395 OA
BRANCH   9  10
ATOM     10  N   UNL     1      -0.095   0.995   1.529  1.00  0.00    -0.086 NA
ATOM     11  C   UNL     1      -1.324   1.060   1.106  1.00  0.00     0.118 C 
BRANCH  11  12
ATOM     12  C   UNL     1      -2.234   2.080   1.691  1.00  0.00     0.022 A 
ATOM     13  C   UNL     1      -3.359   2.543   0.983  1.00  0.00     0.121 A 
ATOM     14  C   UNL     1      -1.977   2.630   2.958  1.00  0.00     0.014 A 
ATOM     15  N   UNL     1      -4.172   3.488   1.522  1.00  0.00    -0.264 NA
ATOM     16  C   UNL     1      -2.829   3.597   3.490  1.00  0.00     0.021 A 
ATOM     17  C   UNL     1      -3.935   4.016   2.750  1.00  0.00     0.111 A 
ENDBRANCH  11  12
BRANCH  11  18
ATOM     18  C   UNL     1      -1.808   0.122   0.058  1.00  0.00     0.005 A 
ATOM     19  C   UNL     1      -1.094  -0.039  -1.142  1.00  0.00     0.023 A 
ATOM     20  C   UNL     1      -2.983  -0.617   0.261  1.00  0.00     0.010 A 
ATOM     21  C   UNL     1      -1.540  -0.935  -2.132  1.00  0.00     0.056 A 
ATOM     22  C   UNL     1      -3.429  -1.514  -0.715  1.00  0.00     0.001 A 
ATOM     23  C   UNL     1      -2.704  -1.686  -1.897  1.00  0.00     0.013 A 
BRANCH  21  24
ATOM     24  C   UNL     1      -0.725  -1.166  -3.380  1.00  0.00     0.416 C 
ATOM     25  F   UNL     1       0.042  -0.055  -3.685  1.00  0.00    -0.166 F 
ATOM     26  F   UNL     1       0.112  -2.243  -3.183  1.00  0.00    -0.166 F 
ATOM     27  F   UNL     1      -1.553  -1.428  -4.454  1.00  0.00    -0.166 F 
ENDBRANCH  21  24
ENDBRANCH  11  18
ENDBRANCH   9  10
ENDBRANCH   8   9
ENDBRANCH   1   8
TORSDOF 10
