REMARK SMILES C[N+]1(C)[C@@H]2C[C@@H](OC(=O)C(O)(c3cccs3)c3cccs3)C[C@H]1[C@@H]1O[C@@H]12
REMARK SMILES IDX 8 1 9 2 7 3 6 4 26 5 25 6 24 7 4 8 23 9 5 10 2 11 22 12 1 13
REMARK SMILES IDX 3 14 10 15 11 16 12 18 13 19 16 20 14 21 15 22 17 23 18 24
REMARK SMILES IDX 21 25 19 26 20 27
REMARK H PARENT 11 17
REMARK Flexibility Score: inf
ROOT
ATOM      1  C   UNL     1      -1.643  -1.107   1.199  1.00  0.00     0.349 C 
ATOM      2  O   UNL     1      -1.494  -2.278   1.647  1.00  0.00    -0.248 OA
ENDROOT
BRANCH   1   3
ATOM      3  O   UNL     1      -0.571  -0.205   1.212  1.00  0.00    -0.459 OA
BRANCH   3   4
ATOM      4  C   UNL     1       0.750  -0.538   1.640  1.00  0.00     0.188 C 
ATOM      5  C   UNL     1       1.337   1.632  -0.339  1.00  0.00     0.212 C 
ATOM      6  O   UNL     1       1.843   1.592  -1.656  1.00  0.00    -0.357 OA
ATOM      7  C   UNL     1       1.313   0.392  -1.147  1.00  0.00     0.212 C 
ATOM      8  C   UNL     1       2.341   1.340   0.803  1.00  0.00     0.221 C 
ATOM      9  C   UNL     1       2.308  -0.556  -0.444  1.00  0.00     0.221 C 
ATOM     10  C   UNL     1       1.499   0.788   1.990  1.00  0.00     0.113 C 
ATOM     11  N   UNL     1       3.278   0.308   0.286  1.00  0.00    -0.319 N 
ATOM     12  C   UNL     1       1.455  -1.407   0.543  1.00  0.00     0.113 C 
ATOM     13  C   UNL     1       4.060  -0.407   1.340  1.00  0.00     0.334 C 
ATOM     14  C   UNL     1       4.293   0.912  -0.645  1.00  0.00     0.334 C 
ENDBRANCH   3   4
ENDBRANCH   1   3
BRANCH   1  15
ATOM     15  C   UNL     1      -2.985  -0.689   0.645  1.00  0.00     0.231 C 
BRANCH  15  16
ATOM     16  O   UNL     1      -3.943  -0.930   1.650  1.00  0.00    -0.369 OA
ATOM     17  H   UNL     1      -4.810  -0.542   1.357  1.00  0.00     0.213 HD
ENDBRANCH  15  16
BRANCH  15  18
ATOM     18  C   UNL     1      -2.959   0.790   0.299  1.00  0.00     0.053 A 
ATOM     19  C   UNL     1      -2.525   1.362  -0.897  1.00  0.00     0.019 A 
ATOM     20  S   UNL     1      -3.245   2.040   1.392  1.00  0.00    -0.145 S 
ATOM     21  C   UNL     1      -2.491   2.762  -0.868  1.00  0.00     0.012 A 
ATOM     22  C   UNL     1      -2.871   3.304   0.351  1.00  0.00     0.065 A 
ENDBRANCH  15  18
BRANCH  15  23
ATOM     23  C   UNL     1      -3.321  -1.517  -0.584  1.00  0.00     0.053 A 
ATOM     24  C   UNL     1      -2.420  -2.006  -1.531  1.00  0.00     0.019 A 
ATOM     25  S   UNL     1      -4.877  -1.854  -1.138  1.00  0.00    -0.145 S 
ATOM     26  C   UNL     1      -3.036  -2.645  -2.614  1.00  0.00     0.012 A 
ATOM     27  C   UNL     1      -4.422  -2.650  -2.545  1.00  0.00     0.065 A 
ENDBRANCH  15  23
ENDBRANCH   1  15
TORSDOF 6
