REMARK SMILES CC(=O)OCC(=O)[C@@]12OC(C)(C)O[C@@H]1C[C@H]1[C@@H]3C[C@H](F)C4=CC(=O)C=C[C@]4(C)[C@@]3(F)[C@@H](O)C[C@@]12C
REMARK SMILES IDX 5 1 6 2 7 3 8 4 14 5 15 6 13 7 16 8 34 9 9 10 10 11 17 12
REMARK SMILES IDX 33 13 35 14 11 15 12 16 18 17 29 18 31 19 19 20 27 21 30 22
REMARK SMILES IDX 20 23 21 24 26 25 28 26 22 27 25 28 23 29 24 30 32 31 4 33
REMARK SMILES IDX 2 34 1 35 3 36
REMARK H PARENT 32 32
REMARK Flexibility Score: inf
ROOT
ATOM      1  C   UNL     1       4.240   0.908  -0.065  1.00  0.00     0.311 C 
ENDROOT
BRANCH   1   2
ATOM      2  C   UNL     1       3.137   0.072  -0.666  1.00  0.00     0.205 C 
ATOM      3  O   UNL     1       3.217  -0.247  -1.844  1.00  0.00    -0.292 OA
BRANCH   2   4
ATOM      4  C   UNL     1       1.931  -0.423   0.136  1.00  0.00     0.165 C 
ATOM      5  C   UNL     1       1.968  -0.168   1.648  1.00  0.00     0.162 C 
ATOM      6  C   UNL     1       0.533   0.209   2.084  1.00  0.00     0.040 C 
ATOM      7  O   UNL     1       2.355  -1.367   2.251  1.00  0.00    -0.344 OA
ATOM      8  C   UNL     1      -0.320  -0.113   0.864  1.00  0.00     0.008 C 
ATOM      9  C   UNL     1       0.584   0.221  -0.327  1.00  0.00     0.012 C 
ATOM     10  O   UNL     1       1.884  -1.819   0.013  1.00  0.00    -0.333 OA
ATOM     11  C   UNL     1       2.348  -2.349   1.238  1.00  0.00     0.164 C 
ATOM     12  C   UNL     1      -1.744   0.478   0.747  1.00  0.00     0.037 C 
ATOM     13  C   UNL     1      -0.055  -0.405  -1.595  1.00  0.00     0.045 C 
ATOM     14  C   UNL     1       0.794   1.761  -0.526  1.00  0.00     0.015 C 
ATOM     15  C   UNL     1       1.423  -3.493   1.668  1.00  0.00     0.075 C 
ATOM     16  C   UNL     1       3.772  -2.891   1.050  1.00  0.00     0.075 C 
ATOM     17  C   UNL     1      -2.569   0.142   2.008  1.00  0.00     0.049 C 
ATOM     18  C   UNL     1      -2.429  -0.114  -0.543  1.00  0.00     0.152 C 
ATOM     19  C   UNL     1      -1.522   0.065  -1.819  1.00  0.00     0.154 C 
ATOM     20  C   UNL     1      -4.003   0.658   1.898  1.00  0.00     0.194 C 
ATOM     21  C   UNL     1      -3.920   0.403  -0.703  1.00  0.00     0.047 C 
ATOM     22  F   UNL     1      -2.528  -1.491  -0.354  1.00  0.00    -0.239 F 
ATOM     23  F   UNL     1      -4.697   0.277   3.035  1.00  0.00    -0.243 F 
ATOM     24  C   UNL     1      -4.646   0.134   0.630  1.00  0.00    -0.020 C 
ATOM     25  C   UNL     1      -4.581  -0.314  -1.883  1.00  0.00    -0.009 C 
ATOM     26  C   UNL     1      -4.037   1.920  -0.994  1.00  0.00     0.024 C 
ATOM     27  C   UNL     1      -5.835  -0.493   0.681  1.00  0.00     0.055 C 
ATOM     28  C   UNL     1      -5.756  -0.939  -1.802  1.00  0.00     0.048 C 
ATOM     29  C   UNL     1      -6.456  -1.035  -0.526  1.00  0.00     0.178 C 
ATOM     30  O   UNL     1      -7.583  -1.593  -0.464  1.00  0.00    -0.290 OA
BRANCH  19  31
ATOM     31  O   UNL     1      -1.535   1.389  -2.280  1.00  0.00    -0.390 OA
ATOM     32  H   UNL     1      -1.250   1.369  -3.232  1.00  0.00     0.211 HD
ENDBRANCH  19  31
ENDBRANCH   2   4
ENDBRANCH   1   2
BRANCH   1  33
ATOM     33  O   UNL     1       5.195   1.264  -1.061  1.00  0.00    -0.458 OA
BRANCH  33  34
ATOM     34  C   UNL     1       6.380   1.943  -0.765  1.00  0.00     0.303 C 
ATOM     35  C   UNL     1       7.276   2.371  -1.877  1.00  0.00     0.139 C 
ATOM     36  O   UNL     1       6.684   2.217   0.426  1.00  0.00    -0.253 OA
ENDBRANCH  33  34
ENDBRANCH   1  33
TORSDOF 5
