REMARK SMILES O=C(OCCN1CCN(c2cccc(C(F)(F)F)c2)CC1)c1ccccc1Nc1ccnc2cc(C(F)(F)F)ccc12
REMARK SMILES IDX 3 1 4 2 5 3 6 4 9 5 8 6 20 7 7 8 21 9 10 10 14 11 19 12
REMARK SMILES IDX 13 13 12 14 11 15 15 16 16 17 17 18 18 19 2 20 1 21 22 22
REMARK SMILES IDX 23 23 27 24 24 25 26 26 25 27 28 28 29 30 42 31 30 32 41 33
REMARK SMILES IDX 33 34 31 35 40 36 34 37 32 38 35 39 36 40 37 41 38 42 39 43
REMARK H PARENT 28 29
REMARK Flexibility Score: inf
ROOT
ATOM      1  O   UNL     1      -1.296  -1.981  -1.184  1.00  0.00    -0.461 OA
ENDROOT
BRANCH   1   2
ATOM      2  C   UNL     1       0.107  -2.027  -0.961  1.00  0.00     0.248 C 
BRANCH   2   3
ATOM      3  C   UNL     1       0.525  -0.799  -0.154  1.00  0.00     0.126 C 
BRANCH   3   4
ATOM      4  N   UNL     1       1.979  -0.816   0.107  1.00  0.00    -0.296 NA
ATOM      5  N   UNL     1       4.395   0.767   0.372  1.00  0.00    -0.369 N 
ATOM      6  C   UNL     1       3.607   0.881  -0.862  1.00  0.00     0.132 C 
ATOM      7  C   UNL     1       3.802   0.087   1.531  1.00  0.00     0.132 C 
ATOM      8  C   UNL     1       2.772  -0.391  -1.083  1.00  0.00     0.106 C 
ATOM      9  C   UNL     1       2.291  -0.071   1.346  1.00  0.00     0.106 C 
BRANCH   5  10
ATOM     10  C   UNL     1       5.677   1.422   0.496  1.00  0.00     0.037 A 
ATOM     11  C   UNL     1       7.934   1.501   1.440  1.00  0.00     0.058 A 
ATOM     12  C   UNL     1       6.690   0.863   1.298  1.00  0.00     0.039 A 
ATOM     13  C   UNL     1       8.175   2.693   0.737  1.00  0.00     0.013 A 
ATOM     14  C   UNL     1       7.176   3.257  -0.058  1.00  0.00     0.003 A 
ATOM     15  C   UNL     1       5.933   2.632  -0.175  1.00  0.00     0.026 A 
BRANCH  11  16
ATOM     16  C   UNL     1       9.017   0.859   2.272  1.00  0.00     0.416 C 
ATOM     17  F   UNL     1       8.476   0.309   3.421  1.00  0.00    -0.166 F 
ATOM     18  F   UNL     1       9.623  -0.142   1.534  1.00  0.00    -0.166 F 
ATOM     19  F   UNL     1       9.976   1.785   2.646  1.00  0.00    -0.166 F 
ENDBRANCH  11  16
ENDBRANCH   5  10
ENDBRANCH   3   4
ENDBRANCH   2   3
ENDBRANCH   1   2
BRANCH   1  20
ATOM     20  C   UNL     1      -1.987  -2.951  -1.915  1.00  0.00     0.340 C 
ATOM     21  O   UNL     1      -1.378  -3.967  -2.350  1.00  0.00    -0.246 OA
BRANCH  20  22
ATOM     22  C   UNL     1      -3.443  -2.803  -2.147  1.00  0.00     0.083 A 
ATOM     23  C   UNL     1      -4.228  -3.955  -2.337  1.00  0.00     0.018 A 
ATOM     24  C   UNL     1      -4.074  -1.533  -2.124  1.00  0.00     0.053 A 
ATOM     25  C   UNL     1      -5.614  -3.858  -2.475  1.00  0.00     0.001 A 
ATOM     26  C   UNL     1      -5.474  -1.456  -2.253  1.00  0.00     0.027 A 
ATOM     27  C   UNL     1      -6.236  -2.611  -2.425  1.00  0.00     0.002 A 
BRANCH  24  28
ATOM     28  N   UNL     1      -3.295  -0.324  -2.040  1.00  0.00    -0.354 N 
ATOM     29  H   UNL     1      -2.441  -0.254  -2.638  1.00  0.00     0.167 HD
BRANCH  28  30
ATOM     30  C   UNL     1      -3.784   0.884  -1.435  1.00  0.00     0.049 A 
ATOM     31  C   UNL     1      -4.236   0.924  -0.095  1.00  0.00     0.024 A 
ATOM     32  C   UNL     1      -3.805   2.056  -2.200  1.00  0.00     0.047 A 
ATOM     33  C   UNL     1      -4.149  -0.185   0.768  1.00  0.00     0.013 A 
ATOM     34  C   UNL     1      -4.756   2.141   0.408  1.00  0.00     0.073 A 
ATOM     35  C   UNL     1      -4.318   3.233  -1.654  1.00  0.00     0.114 A 
ATOM     36  C   UNL     1      -4.620  -0.100   2.080  1.00  0.00     0.014 A 
ATOM     37  C   UNL     1      -5.227   2.217   1.724  1.00  0.00     0.042 A 
ATOM     38  N   UNL     1      -4.783   3.249  -0.379  1.00  0.00    -0.256 NA
ATOM     39  C   UNL     1      -5.190   1.090   2.561  1.00  0.00     0.058 A 
BRANCH  39  40
ATOM     40  C   UNL     1      -5.656   1.179   3.993  1.00  0.00     0.416 C 
ATOM     41  F   UNL     1      -6.213  -0.023   4.396  1.00  0.00    -0.166 F 
ATOM     42  F   UNL     1      -4.576   1.471   4.807  1.00  0.00    -0.166 F 
ATOM     43  F   UNL     1      -6.612   2.170   4.142  1.00  0.00    -0.166 F 
ENDBRANCH  39  40
ENDBRANCH  28  30
ENDBRANCH  24  28
ENDBRANCH  20  22
ENDBRANCH   1  20
TORSDOF 10
