REMARK SMILES Cc1cn[nH]c1
REMARK SMILES IDX 1 1 2 2 6 3 5 4 4 5 3 6
REMARK H PARENT 5 7
REMARK Flexibility Score: inf
ROOT
ATOM      1  C   UNL     1      -1.719  -0.174   0.098  1.00  0.00     0.048 C 
ATOM      2  C   UNL     1      -0.242   0.039   0.093  1.00  0.00    -0.013 A 
ATOM      3  C   UNL     1       0.723  -0.830  -0.366  1.00  0.00     0.108 A 
ATOM      4  N   UNL     1       1.915  -0.214  -0.274  1.00  0.00    -0.285 N 
ATOM      5  N   UNL     1       1.752   1.010   0.205  1.00  0.00    -0.184 NA
ATOM      6  C   UNL     1       0.437   1.192   0.432  1.00  0.00     0.138 A 
ATOM      7  H   UNL     1       2.837  -0.620  -0.546  1.00  0.00     0.189 HD
ENDROOT
TORSDOF 0
