REMARK SMILES C[C@]12CC[C@@H]3c4ccc(OC(=O)N(CCCl)CCCl)cc4CC[C@H]3[C@@H]1CC[C@@H]2O
REMARK SMILES IDX 11 1 12 2 13 3 10 4 9 5 25 6 26 7 2 8 24 9 27 10 28 11 1 12
REMARK SMILES IDX 3 13 5 14 23 15 4 16 6 17 22 18 7 19 21 20 8 21 20 22 29 23
REMARK SMILES IDX 14 25 15 26 16 27 17 28 18 29 19 30
REMARK H PARENT 29 24
REMARK Flexibility Score: inf
ROOT
ATOM      1  C   UNL     1       4.728  -0.003  -0.729  1.00  0.00     0.415 C 
ATOM      2  O   UNL     1       4.324  -1.000  -1.389  1.00  0.00    -0.224 OA
ATOM      3  N   UNL     1       6.138   0.308  -0.679  1.00  0.00    -0.305 N 
ENDROOT
BRANCH   1   4
ATOM      4  O   UNL     1       3.813   0.775  -0.003  1.00  0.00    -0.410 OA
BRANCH   4   5
ATOM      5  C   UNL     1       2.418   0.710  -0.130  1.00  0.00     0.133 A 
ATOM      6  C   UNL     1      -4.087   0.263   0.888  1.00  0.00     0.001 C 
ATOM      7  C   UNL     1      -4.950   0.116   2.133  1.00  0.00     0.007 C 
ATOM      8  C   UNL     1      -4.596  -0.828  -0.065  1.00  0.00    -0.003 C 
ATOM      9  C   UNL     1      -2.552   0.246   1.022  1.00  0.00     0.000 C 
ATOM     10  C   UNL     1      -6.320  -0.317   1.581  1.00  0.00     0.032 C 
ATOM     11  C   UNL     1      -6.117  -0.635   0.082  1.00  0.00     0.120 C 
ATOM     12  C   UNL     1      -4.209  -2.281   0.361  1.00  0.00     0.014 C 
ATOM     13  C   UNL     1      -4.039  -0.526  -1.473  1.00  0.00     0.010 C 
ATOM     14  C   UNL     1      -1.931   0.535  -0.377  1.00  0.00     0.023 C 
ATOM     15  C   UNL     1      -2.052   1.305   2.011  1.00  0.00     0.009 C 
ATOM     16  C   UNL     1      -2.490  -0.437  -1.463  1.00  0.00     0.009 C 
ATOM     17  C   UNL     1      -0.404   0.557  -0.287  1.00  0.00    -0.041 A 
ATOM     18  C   UNL     1      -0.539   1.168   2.213  1.00  0.00     0.036 C 
ATOM     19  C   UNL     1       0.400   0.371  -1.432  1.00  0.00     0.008 A 
ATOM     20  C   UNL     1       0.233   0.915   0.932  1.00  0.00    -0.041 A 
ATOM     21  C   UNL     1       1.791   0.443  -1.353  1.00  0.00     0.047 A 
ATOM     22  C   UNL     1       1.634   0.968   0.997  1.00  0.00     0.051 A 
BRANCH  11  23
ATOM     23  O   UNL     1      -6.840  -1.772  -0.302  1.00  0.00    -0.393 OA
ATOM     24  H   UNL     1      -7.792  -1.491  -0.364  1.00  0.00     0.210 HD
ENDBRANCH  11  23
ENDBRANCH   4   5
ENDBRANCH   1   4
BRANCH   3  25
ATOM     25  C   UNL     1       7.098  -0.510  -1.442  1.00  0.00     0.139 C 
BRANCH  25  26
ATOM     26  C   UNL     1       7.307  -1.872  -0.779  1.00  0.00     0.131 C 
ATOM     27  Cl  UNL     1       8.498  -2.826  -1.699  1.00  0.00    -0.125 Cl
ENDBRANCH  25  26
ENDBRANCH   3  25
BRANCH   3  28
ATOM     28  C   UNL     1       6.574   1.572  -0.055  1.00  0.00     0.139 C 
BRANCH  28  29
ATOM     29  C   UNL     1       6.500   1.509   1.476  1.00  0.00     0.131 C 
ATOM     30  Cl  UNL     1       7.735   0.411   2.137  1.00  0.00    -0.125 Cl
ENDBRANCH  28  29
ENDBRANCH   3  28
TORSDOF 7
