REMARK SMILES C[C@H](CCC(=O)O)[C@H]1CC[C@H]2[C@@H]3[C@@H](O)C[C@@H]4C[C@H](O)CC[C@]4(C)[C@H]3CC[C@]12C
REMARK SMILES IDX 3 1 2 2 1 3 8 4 9 5 27 6 10 7 11 8 26 9 28 10 12 11 25 12
REMARK SMILES IDX 13 13 24 14 15 15 22 16 16 17 21 18 23 19 17 20 20 21 18 22
REMARK SMILES IDX 14 23 19 25 4 27 5 28 6 29 7 30
REMARK H PARENT 14 24 19 26 7 31
REMARK Flexibility Score: inf
ROOT
ATOM      1  C   UNL     1      -4.743  -0.200   1.130  1.00  0.00     0.015 C 
ENDROOT
BRANCH   1   2
ATOM      2  C   UNL     1      -3.996  -1.289   0.300  1.00  0.00    -0.010 C 
ATOM      3  C   UNL     1      -4.994  -2.062  -0.586  1.00  0.00     0.008 C 
BRANCH   2   4
ATOM      4  C   UNL     1      -2.705  -0.936  -0.526  1.00  0.00    -0.002 C 
ATOM      5  C   UNL     1      -2.854   0.020  -1.736  1.00  0.00     0.005 C 
ATOM      6  C   UNL     1      -1.399  -0.485   0.188  1.00  0.00    -0.026 C 
ATOM      7  C   UNL     1      -1.473   0.671  -1.941  1.00  0.00     0.005 C 
ATOM      8  C   UNL     1      -0.543  -0.137  -1.043  1.00  0.00     0.001 C 
ATOM      9  C   UNL     1      -0.659  -1.604   0.954  1.00  0.00     0.007 C 
ATOM     10  C   UNL     1      -1.641   0.740   1.120  1.00  0.00     0.012 C 
ATOM     11  C   UNL     1       0.860   0.429  -0.714  1.00  0.00     0.025 C 
ATOM     12  C   UNL     1       0.744  -1.128   1.391  1.00  0.00     0.005 C 
ATOM     13  C   UNL     1       1.662   0.679  -2.030  1.00  0.00     0.118 C 
ATOM     14  C   UNL     1       1.616  -0.584   0.209  1.00  0.00     0.001 C 
ATOM     15  C   UNL     1       3.190   0.541  -1.845  1.00  0.00     0.036 C 
ATOM     16  C   UNL     1       3.043  -0.036   0.657  1.00  0.00    -0.026 C 
ATOM     17  C   UNL     1       3.614   0.959  -0.427  1.00  0.00     0.000 C 
ATOM     18  C   UNL     1       3.993  -1.265   0.831  1.00  0.00     0.010 C 
ATOM     19  C   UNL     1       2.950   0.734   2.003  1.00  0.00     0.012 C 
ATOM     20  C   UNL     1       5.140   1.216  -0.322  1.00  0.00     0.036 C 
ATOM     21  C   UNL     1       5.467  -0.891   1.015  1.00  0.00     0.032 C 
ATOM     22  C   UNL     1       5.979  -0.058  -0.161  1.00  0.00     0.114 C 
BRANCH  13  23
ATOM     23  O   UNL     1       1.360   1.967  -2.508  1.00  0.00    -0.393 OA
ATOM     24  H   UNL     1       1.507   1.957  -3.489  1.00  0.00     0.210 HD
ENDBRANCH  13  23
BRANCH  22  25
ATOM     25  O   UNL     1       5.962  -0.824  -1.339  1.00  0.00    -0.393 OA
ATOM     26  H   UNL     1       6.523  -0.343  -2.001  1.00  0.00     0.210 HD
ENDBRANCH  22  25
ENDBRANCH   2   4
ENDBRANCH   1   2
BRANCH   1  27
ATOM     27  C   UNL     1      -5.368   0.969   0.351  1.00  0.00     0.123 C 
BRANCH  27  28
ATOM     28  C   UNL     1      -6.402   1.659   1.186  1.00  0.00     0.303 C 
ATOM     29  O   UNL     1      -7.605   1.287   1.137  1.00  0.00    -0.252 OA
BRANCH  28  30
ATOM     30  O   UNL     1      -6.024   2.681   2.052  1.00  0.00    -0.481 OA
ATOM     31  H   UNL     1      -6.708   3.145   2.637  1.00  0.00     0.296 HD
ENDBRANCH  28  30
ENDBRANCH  27  28
ENDBRANCH   1  27
TORSDOF 7
