REMARK SMILES C#CCN[C@@H]1CCc2ccccc21
REMARK SMILES IDX 3 1 2 2 1 3 4 4 5 6 6 7 13 8 7 9 8 10 12 11 9 12 11 13 10 14
REMARK H PARENT 4 5
REMARK Flexibility Score: inf
ROOT
ATOM      1  C   UNL     1       2.188   0.950  -0.971  1.00  0.00     0.171 C 
ENDROOT
BRANCH   1   2
ATOM      2  C   UNL     1       3.261   0.595  -0.026  1.00  0.00    -0.091 C 
ATOM      3  C   UNL     1       4.138   0.304   0.748  1.00  0.00     0.005 C 
ENDBRANCH   1   2
BRANCH   1   4
ATOM      4  N   UNL     1       1.342  -0.204  -1.315  1.00  0.00    -0.299 NA
ATOM      5  H   UNL     1       1.968  -0.936  -1.730  1.00  0.00     0.124 HD
BRANCH   4   6
ATOM      6  C   UNL     1       0.621  -0.796  -0.168  1.00  0.00     0.085 C 
ATOM      7  C   UNL     1      -0.153  -2.054  -0.633  1.00  0.00     0.028 C 
ATOM      8  C   UNL     1      -0.482   0.093   0.308  1.00  0.00    -0.028 A 
ATOM      9  C   UNL     1      -1.611  -1.624  -0.865  1.00  0.00     0.038 C 
ATOM     10  C   UNL     1      -1.714  -0.359  -0.105  1.00  0.00    -0.043 A 
ATOM     11  C   UNL     1      -0.377   1.202   1.156  1.00  0.00     0.005 A 
ATOM     12  C   UNL     1      -2.888   0.312   0.245  1.00  0.00     0.004 A 
ATOM     13  C   UNL     1      -1.544   1.892   1.518  1.00  0.00     0.000 A 
ATOM     14  C   UNL     1      -2.797   1.453   1.055  1.00  0.00     0.000 A 
ENDBRANCH   4   6
ENDBRANCH   1   4
TORSDOF 3
