REMARK SMILES C[C@@H]1C[C@H]2[C@@H]3CCC4=CC(=O)C=C[C@]4(C)[C@@]3(F)[C@@H](O)C[C@]2(C)[C@@]1(O)C(=O)CO
REMARK SMILES IDX 25 1 26 2 23 3 4 4 3 5 21 6 5 7 2 8 22 9 20 10 16 11 6 12
REMARK SMILES IDX 1 13 18 14 17 15 14 16 7 17 8 18 13 19 15 20 9 21 12 22
REMARK SMILES IDX 10 23 11 24 24 25 19 27 27 29 28 30
REMARK H PARENT 24 26 19 28 28 31
REMARK Flexibility Score: inf
ROOT
ATOM      1  C   UNL     1      -4.016   0.928  -0.036  1.00  0.00     0.190 C 
ATOM      2  O   UNL     1      -4.681   0.883  -1.061  1.00  0.00    -0.294 OA
ENDROOT
BRANCH   1   3
ATOM      3  C   UNL     1      -2.903  -0.098   0.219  1.00  0.00     0.133 C 
ATOM      4  C   UNL     1      -0.681  -0.859  -0.194  1.00  0.00     0.005 C 
ATOM      5  C   UNL     1      -1.548  -1.802  -1.020  1.00  0.00     0.011 C 
ATOM      6  C   UNL     1      -1.479   0.452  -0.127  1.00  0.00     0.010 C 
ATOM      7  C   UNL     1       0.802  -0.662  -0.591  1.00  0.00     0.035 C 
ATOM      8  C   UNL     1      -3.002  -1.374  -0.701  1.00  0.00     0.026 C 
ATOM      9  C   UNL     1      -1.525   1.217  -1.496  1.00  0.00     0.015 C 
ATOM     10  C   UNL     1      -0.824   1.350   0.959  1.00  0.00     0.045 C 
ATOM     11  C   UNL     1       1.497   0.256   0.485  1.00  0.00     0.152 C 
ATOM     12  C   UNL     1       1.516  -2.029  -0.691  1.00  0.00     0.012 C 
ATOM     13  C   UNL     1      -3.821  -2.527  -0.102  1.00  0.00     0.011 C 
ATOM     14  C   UNL     1       0.694   1.590   0.712  1.00  0.00     0.154 C 
ATOM     15  F   UNL     1       1.434  -0.423   1.699  1.00  0.00    -0.239 F 
ATOM     16  C   UNL     1       3.041   0.451   0.182  1.00  0.00     0.044 C 
ATOM     17  C   UNL     1       2.999  -1.867  -1.018  1.00  0.00     0.032 C 
ATOM     18  C   UNL     1       3.648  -0.949  -0.013  1.00  0.00    -0.053 C 
ATOM     19  C   UNL     1       3.696   1.213   1.338  1.00  0.00    -0.009 C 
ATOM     20  C   UNL     1       3.340   1.265  -1.103  1.00  0.00     0.024 C 
ATOM     21  C   UNL     1       4.731  -1.369   0.661  1.00  0.00     0.052 C 
ATOM     22  C   UNL     1       4.766   0.772   1.999  1.00  0.00     0.048 C 
ATOM     23  C   UNL     1       5.353  -0.527   1.682  1.00  0.00     0.178 C 
ATOM     24  O   UNL     1       6.379  -0.925   2.293  1.00  0.00    -0.290 OA
BRANCH   3  25
ATOM     25  O   UNL     1      -2.926  -0.485   1.580  1.00  0.00    -0.381 OA
ATOM     26  H   UNL     1      -3.863  -0.699   1.833  1.00  0.00     0.212 HD
ENDBRANCH   3  25
BRANCH  14  27
ATOM     27  O   UNL     1       0.872   2.487  -0.351  1.00  0.00    -0.390 OA
ATOM     28  H   UNL     1       0.618   3.388  -0.019  1.00  0.00     0.211 HD
ENDBRANCH  14  27
ENDBRANCH   1   3
BRANCH   1  29
ATOM     29  C   UNL     1      -4.284   2.043   0.941  1.00  0.00     0.234 C 
BRANCH  29  30
ATOM     30  O   UNL     1      -5.615   1.995   1.375  1.00  0.00    -0.388 OA
ATOM     31  H   UNL     1      -5.676   1.240   2.018  1.00  0.00     0.211 HD
ENDBRANCH  29  30
ENDBRANCH   1  29
TORSDOF 5
