REMARK SMILES CN(C)S(=O)(=O)c1ccc2c(c1)N(CCCN1CCC(CCO)CC1)c1ccccc1S2
REMARK SMILES IDX 15 1 14 2 13 3 7 4 12 5 8 6 11 7 9 8 10 9 32 10 26 11 31 12
REMARK SMILES IDX 27 13 30 14 28 15 29 16 4 17 5 18 6 19 2 20 1 21 3 22 16 23
REMARK SMILES IDX 17 24 18 25 25 26 19 27 24 28 20 29 21 30 22 31 23 32
REMARK H PARENT 23 33
REMARK Flexibility Score: inf
ROOT
ATOM      1  C   UNL     1       0.480   0.478  -1.316  1.00  0.00     0.037 C 
ENDROOT
BRANCH   1   2
ATOM      2  C   UNL     1      -0.754   1.340  -1.709  1.00  0.00     0.124 C 
BRANCH   2   3
ATOM      3  N   UNL     1      -1.511   1.900  -0.572  1.00  0.00    -0.340 N 
ATOM      4  C   UNL     1      -3.869  -0.858   0.490  1.00  0.00     0.084 A 
ATOM      5  C   UNL     1      -2.829  -0.189  -0.170  1.00  0.00     0.049 A 
ATOM      6  C   UNL     1      -4.793  -0.129   1.247  1.00  0.00     0.023 A 
ATOM      7  C   UNL     1      -2.687   1.210  -0.060  1.00  0.00     0.057 A 
ATOM      8  C   UNL     1      -4.705   1.262   1.307  1.00  0.00     0.019 A 
ATOM      9  C   UNL     1      -3.679   1.930   0.633  1.00  0.00     0.036 A 
ATOM     10  S   UNL     1      -3.764   3.707   0.464  1.00  0.00    -0.086 SA
ATOM     11  C   UNL     1      -1.079   3.131   0.075  1.00  0.00     0.055 A 
ATOM     12  C   UNL     1      -2.017   3.934   0.757  1.00  0.00     0.036 A 
ATOM     13  C   UNL     1       0.282   3.494   0.143  1.00  0.00     0.027 A 
ATOM     14  C   UNL     1      -1.595   5.003   1.557  1.00  0.00     0.017 A 
ATOM     15  C   UNL     1       0.695   4.576   0.925  1.00  0.00     0.002 A 
ATOM     16  C   UNL     1      -0.240   5.317   1.648  1.00  0.00     0.001 A 
BRANCH   4  17
ATOM     17  S   UNL     1      -4.026  -2.606   0.334  1.00  0.00     0.242 S 
ATOM     18  O   UNL     1      -4.795  -3.153   1.507  1.00  0.00    -0.207 OA
ATOM     19  O   UNL     1      -2.651  -3.217   0.338  1.00  0.00    -0.207 OA
BRANCH  17  20
ATOM     20  N   UNL     1      -4.838  -3.004  -1.161  1.00  0.00    -0.204 NA
ATOM     21  C   UNL     1      -6.168  -2.382  -1.180  1.00  0.00     0.124 C 
ATOM     22  C   UNL     1      -4.963  -4.462  -1.271  1.00  0.00     0.124 C 
ENDBRANCH  17  20
ENDBRANCH   4  17
ENDBRANCH   2   3
ENDBRANCH   1   2
BRANCH   1  23
ATOM     23  C   UNL     1       0.552  -0.007   0.158  1.00  0.00     0.086 C 
BRANCH  23  24
ATOM     24  N   UNL     1       1.886  -0.504   0.561  1.00  0.00    -0.303 NA
ATOM     25  C   UNL     1       2.860   0.578   0.832  1.00  0.00     0.085 C 
ATOM     26  C   UNL     1       2.397  -1.646  -0.237  1.00  0.00     0.085 C 
ATOM     27  C   UNL     1       4.272   0.012   1.007  1.00  0.00     0.019 C 
ATOM     28  C   UNL     1       3.590  -1.256  -1.123  1.00  0.00     0.019 C 
ATOM     29  C   UNL     1       4.765  -0.674  -0.293  1.00  0.00    -0.006 C 
BRANCH  29  30
ATOM     30  C   UNL     1       5.821  -1.765   0.008  1.00  0.00     0.032 C 
BRANCH  30  31
ATOM     31  C   UNL     1       7.088  -1.217   0.683  1.00  0.00     0.156 C 
BRANCH  31  32
ATOM     32  O   UNL     1       7.699  -0.235  -0.109  1.00  0.00    -0.396 OA
ATOM     33  H   UNL     1       8.115  -0.708  -0.876  1.00  0.00     0.210 HD
ENDBRANCH  31  32
ENDBRANCH  30  31
ENDBRANCH  29  30
ENDBRANCH  23  24
ENDBRANCH   1  23
TORSDOF 9
