REMARK SMILES CO[C@H]1/C=C/O[C@@]2(C)Oc3c(C)c(O)c4c(O)c(c(/C=N/N5CCN(C)CC5)c(O)c4c3C2=O)NC(=O)/C(C)=C\C=C\[C@H](C)[C@H](O)[C@@H](C)[C@@H](O)[C@@H](C)[C@H](OC(C)=O)[C@@H]1C
REMARK SMILES IDX 45 1 47 2 48 3 49 4 51 5 52 6 53 7 58 8 59 9 3 10 2 12 1 13
REMARK SMILES IDX 54 14 55 15 56 16 57 17 50 18 43 20 44 21 42 22 41 23 40 24
REMARK SMILES IDX 38 25 39 26 36 27 35 28 37 29 18 31 19 32 16 33 29 34 15 35
REMARK SMILES IDX 31 36 13 37 32 38 11 39 10 40 33 41 12 42 9 43 7 44 34 45
REMARK SMILES IDX 8 46 20 47 21 48 22 49 23 50 28 51 24 52 27 53 25 54 26 55
REMARK SMILES IDX 17 56 30 58 14 60 6 62 5 63 4 64 46 66
REMARK H PARENT 50 19 35 30 17 57 30 59 14 61 46 67
REMARK Flexibility Score: 50.00
ROOT
ATOM      1  C   UNL     1      -2.644  -1.142  -3.193  1.00  0.00     0.126 C 
ENDROOT
BRANCH   1   2
ATOM      2  C   UNL     1      -2.540   0.260  -3.895  1.00  0.00     0.044 C 
ATOM      3  C   UNL     1      -3.423   0.423  -5.149  1.00  0.00     0.013 C 
BRANCH   2   4
ATOM      4  C   UNL     1      -2.632   1.455  -2.893  1.00  0.00     0.126 C 
BRANCH   4   5
ATOM      5  C   UNL     1      -4.024   1.818  -2.243  1.00  0.00     0.056 C 
ATOM      6  C   UNL     1      -5.257   0.976  -2.636  1.00  0.00     0.014 C 
BRANCH   5   7
ATOM      7  C   UNL     1      -3.924   2.084  -0.702  1.00  0.00     0.187 C 
BRANCH   7   8
ATOM      8  C   UNL     1      -3.588   0.855   0.225  1.00  0.00     0.060 C 
ATOM      9  C   UNL     1      -4.774  -0.132   0.327  1.00  0.00     0.015 C 
BRANCH   8  10
ATOM     10  C   UNL     1      -3.166   1.353   1.640  1.00  0.00     0.150 CG0
ATOM     11  G   UNL     1      -2.798   0.210   2.572  1.00  0.00     0.000 G0
BRANCH  10  12
ATOM     12  O   UNL     1      -4.212   2.150   2.187  1.00  0.00    -0.377 OA
ATOM     13  C   UNL     1      -3.682   3.233   2.922  1.00  0.00     0.195 C 
ENDBRANCH  10  12
ENDBRANCH   8  10
ENDBRANCH   7   8
BRANCH   7  14
ATOM     14  O   UNL     1      -2.944   3.107  -0.492  1.00  0.00    -0.462 OA
BRANCH  14  15
ATOM     15  C   UNL     1      -3.176   4.470  -0.693  1.00  0.00     0.302 C 
ATOM     16  C   UNL     1      -2.053   5.436  -0.517  1.00  0.00     0.139 C 
ATOM     17  O   UNL     1      -4.331   4.898  -0.960  1.00  0.00    -0.253 OA
ENDBRANCH  14  15
ENDBRANCH   7  14
ENDBRANCH   5   7
ENDBRANCH   4   5
BRANCH   4  18
ATOM     18  O   UNL     1      -2.102   2.595  -3.535  1.00  0.00    -0.392 OA
ATOM     19  H   UNL     1      -1.727   3.186  -2.827  1.00  0.00     0.210 HD
ENDBRANCH   4  18
ENDBRANCH   2   4
ENDBRANCH   1   2
BRANCH   1  20
ATOM     20  C   UNL     1      -1.270  -1.845  -3.005  1.00  0.00     0.038 C 
ATOM     21  C   UNL     1      -0.676  -2.360  -4.334  1.00  0.00     0.015 C 
BRANCH  20  22
ATOM     22  C   UNL     1      -0.334  -0.982  -2.175  1.00  0.00    -0.021 C 
ATOM     23  C   UNL     1       0.698  -0.288  -2.676  1.00  0.00    -0.003 C 
BRANCH  23  24
ATOM     24  C   UNL     1       1.405   0.692  -1.833  1.00  0.00     0.009 C 
ATOM     25  C   UNL     1       2.679   0.538  -1.434  1.00  0.00     0.014 C 
ATOM     26  C   UNL     1       3.312   1.599  -0.585  1.00  0.00     0.050 C 
BRANCH  25  27
ATOM     27  C   UNL     1       3.462  -0.677  -1.748  1.00  0.00     0.251 C 
ATOM     28  N   UNL     1       3.826  -1.594  -0.704  1.00  0.00    -0.318 N 
ATOM     29  O   UNL     1       3.775  -0.921  -2.939  1.00  0.00    -0.269 OA
ATOM     30  H   UNL     1       4.590  -2.276  -0.910  1.00  0.00     0.170 HD
BRANCH  28  31
ATOM     31  C   UNL     1       2.848  -1.988   0.268  1.00  0.00     0.097 A 
ATOM     32  C   UNL     1       2.887  -1.483   1.582  1.00  0.00     0.064 A 
ATOM     33  C   UNL     1       1.786  -2.802  -0.153  1.00  0.00     0.151 A 
ATOM     34  C   UNL     1       1.822  -1.776   2.466  1.00  0.00     0.135 A 
ATOM     35  C   UNL     1       0.671  -3.038   0.697  1.00  0.00     0.073 A 
ATOM     36  C   UNL     1       0.661  -2.437   1.996  1.00  0.00     0.047 A 
ATOM     37  C   UNL     1      -0.437  -3.841   0.282  1.00  0.00     0.134 A 
ATOM     38  C   UNL     1      -0.536  -2.544   2.759  1.00  0.00     0.080 A 
ATOM     39  C   UNL     1      -1.644  -3.802   1.007  1.00  0.00     0.035 A 
ATOM     40  C   UNL     1      -1.654  -3.160   2.243  1.00  0.00     0.143 A 
ATOM     41  C   UNL     1      -0.985  -1.974   4.044  1.00  0.00     0.251 C 
ATOM     42  C   UNL     1      -2.889  -4.478   0.503  1.00  0.00     0.052 C 
ATOM     43  O   UNL     1      -2.766  -3.042   3.070  1.00  0.00    -0.444 OA
ATOM     44  C   UNL     1      -2.420  -2.350   4.266  1.00  0.00     0.312 C 
ATOM     45  O   UNL     1      -0.308  -1.278   4.849  1.00  0.00    -0.285 OA
ATOM     46  C   UNL     1      -2.539  -3.304   5.458  1.00  0.00     0.116 C 
BRANCH  32  47
ATOM     47  C   UNL     1       3.973  -0.563   2.016  1.00  0.00     0.147 C 
ATOM     48  N   UNL     1       5.162  -0.626   1.496  1.00  0.00    -0.185 NA
BRANCH  48  49
ATOM     49  N   UNL     1       6.198   0.285   1.786  1.00  0.00    -0.294 NA
ATOM     50  C   UNL     1       7.583  -0.167   1.608  1.00  0.00     0.154 C 
ATOM     51  C   UNL     1       5.935   1.692   2.139  1.00  0.00     0.154 C 
ATOM     52  C   UNL     1       8.518   1.019   1.379  1.00  0.00     0.107 C 
ATOM     53  C   UNL     1       6.722   2.660   1.229  1.00  0.00     0.107 C 
ATOM     54  N   UNL     1       7.839   1.997   0.514  1.00  0.00    -0.303 NA
ATOM     55  C   UNL     1       8.790   2.995  -0.000  1.00  0.00     0.105 C 
ENDBRANCH  48  49
ENDBRANCH  32  47
BRANCH  33  56
ATOM     56  O   UNL     1       1.861  -3.279  -1.466  1.00  0.00    -0.505 OA
ATOM     57  H   UNL     1       1.054  -3.405  -2.059  1.00  0.00     0.293 HD
ENDBRANCH  33  56
BRANCH  34  58
ATOM     58  O   UNL     1       1.942  -1.472   3.825  1.00  0.00    -0.506 OA
ATOM     59  H   UNL     1       2.764  -1.085   4.259  1.00  0.00     0.293 HD
ENDBRANCH  34  58
BRANCH  37  60
ATOM     60  O   UNL     1      -0.311  -4.700  -0.813  1.00  0.00    -0.507 OA
ATOM     61  H   UNL     1      -1.013  -5.382  -1.065  1.00  0.00     0.293 HD
ENDBRANCH  37  60
BRANCH  44  62
ATOM     62  O   UNL     1      -3.281  -1.224   4.483  1.00  0.00    -0.454 OA
BRANCH  62  63
ATOM     63  C   UNL     1      -3.582  -0.173   3.592  1.00  0.00     0.191 C 
ATOM     64  C   UNL     1      -2.798   0.210   2.572  1.00  0.00     0.043 CG0
ATOM     65  G   UNL     1      -3.166   1.353   1.640  1.00  0.00     0.000 G0
ENDBRANCH  62  63
ENDBRANCH  44  62
ENDBRANCH  28  31
ENDBRANCH  25  27
ENDBRANCH  23  24
ENDBRANCH  20  22
ENDBRANCH   1  20
BRANCH   1  66
ATOM     66  O   UNL     1      -3.522  -1.997  -3.883  1.00  0.00    -0.392 OA
ATOM     67  H   UNL     1      -3.789  -2.720  -3.254  1.00  0.00     0.210 HD
ENDBRANCH   1  66
TORSDOF 10
