REMARK SMILES O=C1CCC(N2C(=O)c3ccccc3C2=O)C(=O)N1
REMARK SMILES IDX 8 1 7 2 6 3 15 4 16 5 14 6 13 7 12 8 11 9 10 10 9 11 5 12
REMARK SMILES IDX 4 13 17 14 3 15 19 16 18 17 2 18 1 20
REMARK H PARENT 19 19
REMARK Flexibility Score: inf
ROOT
ATOM      1  O   UNL     1       0.643   1.543   2.143  1.00  0.00    -0.269 OA
ATOM      2  C   UNL     1       0.892   0.637   1.303  1.00  0.00     0.262 C 
ATOM      3  N   UNL     1      -0.110  -0.119   0.615  1.00  0.00    -0.262 N 
ATOM      4  C   UNL     1       0.635  -0.958  -0.279  1.00  0.00     0.262 C 
ATOM      5  O   UNL     1       0.115  -1.740  -1.119  1.00  0.00    -0.269 OA
ATOM      6  C   UNL     1       2.065  -0.745  -0.095  1.00  0.00     0.053 A 
ATOM      7  C   UNL     1       3.161  -1.332  -0.725  1.00  0.00     0.015 A 
ATOM      8  C   UNL     1       4.447  -0.906  -0.345  1.00  0.00     0.001 A 
ATOM      9  C   UNL     1       4.607   0.090   0.643  1.00  0.00     0.001 A 
ATOM     10  C   UNL     1       3.484   0.670   1.260  1.00  0.00     0.015 A 
ATOM     11  C   UNL     1       2.222   0.227   0.869  1.00  0.00     0.053 A 
ENDROOT
BRANCH   3  12
ATOM     12  C   UNL     1      -1.535   0.219   0.533  1.00  0.00     0.184 C 
ATOM     13  C   UNL     1      -1.798   1.090  -0.709  1.00  0.00     0.046 C 
ATOM     14  C   UNL     1      -2.386  -1.027   0.512  1.00  0.00     0.249 C 
ATOM     15  C   UNL     1      -3.291   1.384  -0.881  1.00  0.00     0.103 C 
ATOM     16  N   UNL     1      -3.621  -1.048  -0.213  1.00  0.00    -0.295 N 
ATOM     17  O   UNL     1      -2.048  -2.033   1.192  1.00  0.00    -0.272 OA
ATOM     18  C   UNL     1      -4.076   0.105  -0.929  1.00  0.00     0.226 C 
ATOM     19  H   UNL     1      -4.199  -1.918  -0.219  1.00  0.00     0.172 HD
ATOM     20  O   UNL     1      -5.165   0.062  -1.561  1.00  0.00    -0.275 OA
ENDBRANCH   3  12
TORSDOF 1
