REMARK SMILES CN1CCN(CC/C=C2/c3ccccc3Sc3ccc(S(=O)(=O)N(C)C)cc32)CC1
REMARK SMILES IDX 20 1 27 2 28 3 17 4 16 5 15 6 14 7 13 8 12 9 11 10 10 11
REMARK SMILES IDX 9 12 8 13 18 14 19 15 21 16 22 17 23 18 24 19 25 20 26 21
REMARK SMILES IDX 7 22 6 23 5 24 4 25 29 26 3 27 30 28 2 29 1 30
REMARK H PARENT
REMARK Flexibility Score: inf
ROOT
ATOM      1  C   UNL     1      -3.805   0.073   0.665  1.00  0.00     0.083 A 
ATOM      2  C   UNL     1      -2.482  -0.382   0.615  1.00  0.00     0.031 A 
ATOM      3  C   UNL     1      -2.119  -1.429  -0.249  1.00  0.00    -0.003 A 
ATOM      4  C   UNL     1      -3.119  -2.065  -1.013  1.00  0.00     0.020 A 
ATOM      5  S   UNL     1      -2.681  -3.423  -2.108  1.00  0.00    -0.089 SA
ATOM      6  C   UNL     1      -1.694  -4.260  -0.856  1.00  0.00     0.020 A 
ATOM      7  C   UNL     1      -1.823  -5.641  -0.668  1.00  0.00     0.016 A 
ATOM      8  C   UNL     1      -0.982  -6.305   0.229  1.00  0.00     0.001 A 
ATOM      9  C   UNL     1      -0.012  -5.593   0.941  1.00  0.00     0.001 A 
ATOM     10  C   UNL     1       0.107  -4.209   0.774  1.00  0.00     0.010 A 
ATOM     11  C   UNL     1      -0.740  -3.531  -0.120  1.00  0.00    -0.004 A 
ATOM     12  C   UNL     1      -0.767  -2.049  -0.190  1.00  0.00    -0.013 C 
ATOM     13  C   UNL     1       0.382  -1.352  -0.297  1.00  0.00    -0.016 C 
ATOM     14  C   UNL     1      -4.447  -1.632  -0.936  1.00  0.00     0.017 A 
ATOM     15  C   UNL     1      -4.787  -0.558  -0.112  1.00  0.00     0.023 A 
ENDROOT
BRANCH   1  16
ATOM     16  S   UNL     1      -4.220   1.414   1.729  1.00  0.00     0.242 S 
ATOM     17  O   UNL     1      -4.094   0.949   3.155  1.00  0.00    -0.207 OA
ATOM     18  O   UNL     1      -5.640   1.852   1.481  1.00  0.00    -0.207 OA
BRANCH  16  19
ATOM     19  N   UNL     1      -3.128   2.749   1.442  1.00  0.00    -0.204 NA
ATOM     20  C   UNL     1      -3.271   3.211   0.054  1.00  0.00     0.124 C 
ATOM     21  C   UNL     1      -3.443   3.841   2.370  1.00  0.00     0.124 C 
ENDBRANCH  16  19
ENDBRANCH   1  16
BRANCH  13  22
ATOM     22  C   UNL     1       0.447   0.130  -0.576  1.00  0.00     0.043 C 
BRANCH  22  23
ATOM     23  C   UNL     1       1.858   0.565  -0.988  1.00  0.00     0.088 C 
BRANCH  23  24
ATOM     24  N   UNL     1       2.810   0.343   0.127  1.00  0.00    -0.300 NA
ATOM     25  C   UNL     1       2.960   1.522   1.009  1.00  0.00     0.100 C 
ATOM     26  C   UNL     1       4.120  -0.172  -0.319  1.00  0.00     0.100 C 
ATOM     27  C   UNL     1       3.876   2.600   0.402  1.00  0.00     0.099 C 
ATOM     28  C   UNL     1       4.972   0.931  -0.954  1.00  0.00     0.099 C 
ATOM     29  N   UNL     1       5.174   2.019   0.019  1.00  0.00    -0.304 NA
ATOM     30  C   UNL     1       6.042   3.058  -0.557  1.00  0.00     0.105 C 
ENDBRANCH  23  24
ENDBRANCH  22  23
ENDBRANCH  13  22
TORSDOF 5
