REMARK SMILES Oc1ccc(CCCCNC[C@H](O)c2ccc(O)c(O)c2)cc1
REMARK SMILES IDX 9 1 10 2 11 4 12 5 13 6 14 8 21 9 15 10 19 11 16 12 17 13
REMARK SMILES IDX 20 14 18 16 8 18 7 19 6 20 5 21 4 22 22 23 3 24 23 25 2 26
REMARK SMILES IDX 1 27
REMARK H PARENT 10 3 13 7 20 15 18 17 1 28
REMARK Flexibility Score: inf
ROOT
ATOM      1  C   UNL     1       0.175  -2.184  -0.922  1.00  0.00     0.081 C 
ENDROOT
BRANCH   1   2
ATOM      2  N   UNL     1      -0.336  -1.016  -1.666  1.00  0.00    -0.314 NA
ATOM      3  H   UNL     1       0.454  -0.364  -1.876  1.00  0.00     0.122 HD
BRANCH   2   4
ATOM      4  C   UNL     1      -1.409  -0.269  -0.989  1.00  0.00     0.117 C 
BRANCH   4   5
ATOM      5  C   UNL     1      -2.736  -1.051  -0.961  1.00  0.00     0.158 C 
BRANCH   5   6
ATOM      6  O   UNL     1      -3.124  -1.401  -2.266  1.00  0.00    -0.387 OA
ATOM      7  H   UNL     1      -2.616  -2.217  -2.512  1.00  0.00     0.211 HD
ENDBRANCH   5   6
BRANCH   5   8
ATOM      8  C   UNL     1      -3.815  -0.206  -0.321  1.00  0.00    -0.014 A 
ATOM      9  C   UNL     1      -4.141  -0.388   1.034  1.00  0.00     0.056 A 
ATOM     10  C   UNL     1      -4.457   0.812  -1.047  1.00  0.00     0.010 A 
ATOM     11  C   UNL     1      -5.112   0.412   1.648  1.00  0.00     0.157 A 
ATOM     12  C   UNL     1      -5.426   1.612  -0.438  1.00  0.00     0.050 A 
ATOM     13  C   UNL     1      -5.760   1.416   0.909  1.00  0.00     0.157 A 
BRANCH  11  14
ATOM     14  O   UNL     1      -5.416   0.197   2.992  1.00  0.00    -0.504 OA
ATOM     15  H   UNL     1      -6.109   0.750   3.482  1.00  0.00     0.293 HD
ENDBRANCH  11  14
BRANCH  13  16
ATOM     16  O   UNL     1      -6.729   2.215   1.514  1.00  0.00    -0.504 OA
ATOM     17  H   UNL     1      -7.210   2.945   1.002  1.00  0.00     0.293 HD
ENDBRANCH  13  16
ENDBRANCH   5   8
ENDBRANCH   4   5
ENDBRANCH   2   4
ENDBRANCH   1   2
BRANCH   1  18
ATOM     18  C   UNL     1       0.768  -1.867   0.469  1.00  0.00     0.016 C 
BRANCH  18  19
ATOM     19  C   UNL     1       1.841  -0.766   0.487  1.00  0.00     0.006 C 
BRANCH  19  20
ATOM     20  C   UNL     1       3.081  -1.130  -0.340  1.00  0.00     0.035 C 
BRANCH  20  21
ATOM     21  C   UNL     1       4.140  -0.071  -0.195  1.00  0.00    -0.048 A 
ATOM     22  C   UNL     1       5.109  -0.168   0.817  1.00  0.00     0.007 A 
ATOM     23  C   UNL     1       4.134   1.055  -1.036  1.00  0.00     0.007 A 
ATOM     24  C   UNL     1       6.071   0.834   0.971  1.00  0.00     0.046 A 
ATOM     25  C   UNL     1       5.098   2.056  -0.880  1.00  0.00     0.046 A 
ATOM     26  C   UNL     1       6.069   1.949   0.121  1.00  0.00     0.115 A 
BRANCH  26  27
ATOM     27  O   UNL     1       7.023   2.954   0.264  1.00  0.00    -0.508 OA
ATOM     28  H   UNL     1       7.738   2.906   0.980  1.00  0.00     0.293 HD
ENDBRANCH  26  27
ENDBRANCH  20  21
ENDBRANCH  19  20
ENDBRANCH  18  19
ENDBRANCH   1  18
TORSDOF 12
