REMARK SMILES O=C1CN=C(c2ccccc2Cl)c2cc([N+](=O)[O-])ccc2N1
REMARK SMILES IDX 15 1 14 2 13 3 21 4 20 5 19 6 16 7 18 8 17 9 5 10 4 11 6 12
REMARK SMILES IDX 7 13 11 14 8 15 10 16 12 17 9 18 3 19 22 21 2 22 1 24
REMARK H PARENT 22 23
REMARK Flexibility Score: 90.00
ROOT
ATOM      1  C   UNL     1      -2.215  -1.761  -0.023  1.00  0.00     0.270 A 
ATOM      2  C   UNL     1      -0.953  -1.195  -0.269  1.00  0.00     0.098 A 
ATOM      3  C   UNL     1      -0.761   0.200  -0.257  1.00  0.00     0.031 A 
ATOM      4  C   UNL     1      -1.875   1.045  -0.009  1.00  0.00     0.051 A 
ATOM      5  C   UNL     1      -3.125   0.471   0.258  1.00  0.00     0.034 A 
ATOM      6  C   UNL     1      -3.297  -0.912   0.247  1.00  0.00     0.088 A 
ENDROOT
BRANCH   1   7
ATOM      7  N   UNL     1      -2.396  -3.189  -0.036  1.00  0.00     0.062 N 
ATOM      8  O   UNL     1      -3.634  -3.739   0.207  1.00  0.00    -0.258 OA
ATOM      9  O   UNL     1      -1.435  -3.952  -0.268  1.00  0.00    -0.258 OA
ENDBRANCH   1   7
BRANCH   3  10
ATOM     10  C   UNL     1       0.626   0.726  -0.437  1.00  0.00     0.076 C 
ATOM     11  N   UNL     1       0.882   1.753  -1.197  1.00  0.00    -0.274 NA
BRANCH  10  12
ATOM     12  C   UNL     1       1.775   0.019   0.180  1.00  0.00     0.019 A 
ATOM     13  C   UNL     1       2.879  -0.318  -0.623  1.00  0.00     0.012 A 
ATOM     14  C   UNL     1       1.792  -0.323   1.552  1.00  0.00     0.050 A 
ATOM     15  C   UNL     1       3.969  -1.003  -0.080  1.00  0.00     0.001 A 
ATOM     16  C   UNL     1       2.891  -1.009   2.085  1.00  0.00     0.021 A 
ATOM     17  Cl  UNL     1       0.499   0.147   2.651  1.00  0.00    -0.084 Cl
ATOM     18  C   UNL     1       3.973  -1.352   1.271  1.00  0.00     0.002 A 
ENDBRANCH  10  12
BRANCH  11  19
ATOM     19  C   UNL     1      -0.116   2.541  -1.904  1.00  0.00     0.243 CG0
ATOM     20  G   UNL     1      -0.988   3.232  -0.909  1.00  0.00     0.000 G0
ENDBRANCH  11  19
ENDBRANCH   3  10
BRANCH   4  21
ATOM     21  N   UNL     1      -1.765   2.479   0.027  1.00  0.00    -0.324 N 
ATOM     22  C   UNL     1      -0.988   3.232  -0.909  1.00  0.00     0.246 CG0
ATOM     23  H   UNL     1      -2.424   3.010   0.640  1.00  0.00     0.170 HD
ATOM     24  O   UNL     1      -1.036   4.491  -0.889  1.00  0.00    -0.273 OA
ATOM     25  G   UNL     1      -0.116   2.541  -1.904  1.00  0.00     0.000 G0
ENDBRANCH   4  21
TORSDOF 2
