REMARK SMILES CC(C(=O)O)c1ccc(C(=O)c2ccccc2)s1
REMARK SMILES IDX 6 1 7 2 8 3 9 4 18 5 2 6 1 7 3 8 4 9 5 10 10 12 11 13 12 14
REMARK SMILES IDX 13 15 17 16 14 17 16 18 15 19
REMARK H PARENT 5 11
REMARK Flexibility Score: inf
ROOT
ATOM      1  C   UNL     1       1.946   0.142  -0.373  1.00  0.00     0.019 A 
ATOM      2  C   UNL     1       1.960  -0.723  -1.464  1.00  0.00     0.017 A 
ATOM      3  C   UNL     1       0.712  -1.295  -1.736  1.00  0.00     0.024 A 
ATOM      4  C   UNL     1      -0.293  -0.876  -0.868  1.00  0.00     0.075 A 
ATOM      5  S   UNL     1       0.386   0.183   0.255  1.00  0.00    -0.136 S 
ENDROOT
BRANCH   1   6
ATOM      6  C   UNL     1       3.121   0.890   0.196  1.00  0.00     0.136 C 
ATOM      7  C   UNL     1       3.768   1.792  -0.860  1.00  0.00     0.026 C 
BRANCH   6   8
ATOM      8  C   UNL     1       4.118  -0.069   0.782  1.00  0.00     0.311 C 
ATOM      9  O   UNL     1       4.826  -0.795   0.033  1.00  0.00    -0.252 OA
BRANCH   8  10
ATOM     10  O   UNL     1       4.238  -0.177   2.164  1.00  0.00    -0.481 OA
ATOM     11  H   UNL     1       4.897  -0.826   2.579  1.00  0.00     0.296 HD
ENDBRANCH   8  10
ENDBRANCH   6   8
ENDBRANCH   1   6
BRANCH   4  12
ATOM     12  C   UNL     1      -1.688  -1.359  -0.881  1.00  0.00     0.202 C 
ATOM     13  O   UNL     1      -1.963  -2.405  -1.530  1.00  0.00    -0.288 OA
BRANCH  12  14
ATOM     14  C   UNL     1      -2.770  -0.671  -0.141  1.00  0.00     0.023 A 
ATOM     15  C   UNL     1      -3.775  -1.425   0.491  1.00  0.00     0.012 A 
ATOM     16  C   UNL     1      -2.841   0.733  -0.097  1.00  0.00     0.012 A 
ATOM     17  C   UNL     1      -4.811  -0.787   1.179  1.00  0.00     0.001 A 
ATOM     18  C   UNL     1      -3.880   1.367   0.592  1.00  0.00     0.001 A 
ATOM     19  C   UNL     1      -4.862   0.608   1.232  1.00  0.00     0.000 A 
ENDBRANCH  12  14
ENDBRANCH   4  12
TORSDOF 5
