REMARK SMILES CNC(C)(C)Cc1ccccc1
REMARK SMILES IDX 3 1 4 2 5 3 2 4 1 5 6 7 7 8 8 9 12 10 9 11 11 12 10 13
REMARK H PARENT 2 6
REMARK Flexibility Score: inf
ROOT
ATOM      1  C   UNL     1      -1.235  -0.622   0.216  1.00  0.00     0.016 C 
ATOM      2  C   UNL     1      -2.498  -0.924   1.060  1.00  0.00     0.028 C 
ATOM      3  C   UNL     1      -0.827  -1.934  -0.495  1.00  0.00     0.028 C 
ENDROOT
BRANCH   1   4
ATOM      4  N   UNL     1      -1.501   0.408  -0.824  1.00  0.00    -0.314 NA
ATOM      5  C   UNL     1      -2.187   1.617  -0.347  1.00  0.00     0.102 C 
ATOM      6  H   UNL     1      -2.102  -0.003  -1.577  1.00  0.00     0.122 HD
ENDBRANCH   1   4
BRANCH   1   7
ATOM      7  C   UNL     1      -0.081  -0.173   1.163  1.00  0.00     0.057 C 
BRANCH   7   8
ATOM      8  C   UNL     1       1.200   0.170   0.437  1.00  0.00    -0.046 A 
ATOM      9  C   UNL     1       1.409   1.464  -0.072  1.00  0.00     0.004 A 
ATOM     10  C   UNL     1       2.197  -0.805   0.258  1.00  0.00     0.004 A 
ATOM     11  C   UNL     1       2.590   1.773  -0.753  1.00  0.00     0.000 A 
ATOM     12  C   UNL     1       3.377  -0.492  -0.425  1.00  0.00     0.000 A 
ATOM     13  C   UNL     1       3.573   0.795  -0.931  1.00  0.00     0.000 A 
ENDBRANCH   7   8
ENDBRANCH   1   7
TORSDOF 3
