REMARK SMILES O=C1CN=C(c2ccccc2)c2cc([N+](=O)[O-])ccc2N1
REMARK SMILES IDX 14 1 13 2 12 3 20 4 19 5 18 6 15 7 17 8 16 9 5 10 4 11 6 12
REMARK SMILES IDX 7 13 11 14 8 15 10 16 9 17 3 18 21 20 2 21 1 23
REMARK H PARENT 21 22
REMARK Flexibility Score: 90.00
ROOT
ATOM      1  C   UNL     1      -1.897  -2.148  -0.033  1.00  0.00     0.270 A 
ATOM      2  C   UNL     1      -0.970  -1.199   0.426  1.00  0.00     0.098 A 
ATOM      3  C   UNL     1      -0.810   0.041  -0.222  1.00  0.00     0.031 A 
ATOM      4  C   UNL     1      -1.635   0.345  -1.337  1.00  0.00     0.051 A 
ATOM      5  C   UNL     1      -2.541  -0.617  -1.803  1.00  0.00     0.034 A 
ATOM      6  C   UNL     1      -2.675  -1.847  -1.160  1.00  0.00     0.088 A 
ENDROOT
BRANCH   1   7
ATOM      7  N   UNL     1      -2.038  -3.414   0.640  1.00  0.00     0.062 N 
ATOM      8  O   UNL     1      -1.267  -3.712   1.740  1.00  0.00    -0.258 OA
ATOM      9  O   UNL     1      -2.863  -4.261   0.237  1.00  0.00    -0.258 OA
ENDBRANCH   1   7
BRANCH   3  10
ATOM     10  C   UNL     1       0.256   0.967   0.267  1.00  0.00     0.075 C 
ATOM     11  N   UNL     1       0.035   2.241   0.424  1.00  0.00    -0.274 NA
BRANCH  10  12
ATOM     12  C   UNL     1       1.602   0.441   0.620  1.00  0.00     0.000 A 
ATOM     13  C   UNL     1       2.367   1.060   1.628  1.00  0.00     0.010 A 
ATOM     14  C   UNL     1       2.145  -0.663  -0.064  1.00  0.00     0.010 A 
ATOM     15  C   UNL     1       3.636   0.572   1.954  1.00  0.00     0.001 A 
ATOM     16  C   UNL     1       3.415  -1.147   0.267  1.00  0.00     0.001 A 
ATOM     17  C   UNL     1       4.158  -0.531   1.276  1.00  0.00     0.000 A 
ENDBRANCH  10  12
BRANCH  11  18
ATOM     18  C   UNL     1      -1.214   2.920   0.112  1.00  0.00     0.243 CG0
ATOM     19  G   UNL     1      -1.446   2.861  -1.361  1.00  0.00     0.000 G0
ENDBRANCH  11  18
ENDBRANCH   3  10
BRANCH   4  20
ATOM     20  N   UNL     1      -1.560   1.601  -2.032  1.00  0.00    -0.324 N 
ATOM     21  C   UNL     1      -1.446   2.861  -1.361  1.00  0.00     0.246 CG0
ATOM     22  H   UNL     1      -1.800   1.619  -3.049  1.00  0.00     0.170 HD
ATOM     23  O   UNL     1      -1.534   3.930  -2.023  1.00  0.00    -0.273 OA
ATOM     24  G   UNL     1      -1.214   2.920   0.112  1.00  0.00     0.000 G0
ENDBRANCH   4  20
TORSDOF 2
