REMARK SMILES COc1cc(NC(C)CCCN)c2ncccc2c1
REMARK SMILES IDX 7 1 8 2 6 3 5 5 3 6 4 7 19 8 18 9 13 10 17 11 14 12 16 13
REMARK SMILES IDX 15 14 2 15 1 16 9 17 10 18 11 19 12 20
REMARK H PARENT 6 4 12 21 12 22
REMARK Flexibility Score: inf
ROOT
ATOM      1  C   UNL     1       1.773  -1.326  -0.139  1.00  0.00     0.076 C 
ATOM      2  C   UNL     1       2.196  -1.649   1.300  1.00  0.00     0.031 C 
ENDROOT
BRANCH   1   3
ATOM      3  N   UNL     1       0.405  -1.800  -0.405  1.00  0.00    -0.381 N 
ATOM      4  H   UNL     1       0.326  -2.647  -1.013  1.00  0.00     0.160 HD
BRANCH   3   5
ATOM      5  C   UNL     1      -0.801  -1.045  -0.166  1.00  0.00     0.065 A 
ATOM      6  C   UNL     1      -2.185   0.348   1.290  1.00  0.00     0.121 A 
ATOM      7  C   UNL     1      -1.010  -0.376   1.052  1.00  0.00     0.074 A 
ATOM      8  C   UNL     1      -3.178   0.400   0.296  1.00  0.00     0.057 A 
ATOM      9  C   UNL     1      -2.995  -0.272  -0.918  1.00  0.00     0.006 A 
ATOM     10  C   UNL     1      -1.807  -1.001  -1.151  1.00  0.00     0.094 A 
ATOM     11  C   UNL     1      -3.977  -0.234  -1.919  1.00  0.00     0.012 A 
ATOM     12  N   UNL     1      -1.636  -1.643  -2.340  1.00  0.00    -0.254 NA
ATOM     13  C   UNL     1      -3.769  -0.908  -3.123  1.00  0.00     0.021 A 
ATOM     14  C   UNL     1      -2.580  -1.614  -3.318  1.00  0.00     0.112 A 
BRANCH   6  15
ATOM     15  O   UNL     1      -2.324   0.996   2.526  1.00  0.00    -0.497 OA
ATOM     16  C   UNL     1      -3.459   1.767   2.908  1.00  0.00     0.278 C 
ENDBRANCH   6  15
ENDBRANCH   3   5
ENDBRANCH   1   3
BRANCH   1  17
ATOM     17  C   UNL     1       1.936   0.168  -0.507  1.00  0.00     0.026 C 
BRANCH  17  18
ATOM     18  C   UNL     1       3.406   0.634  -0.572  1.00  0.00     0.017 C 
BRANCH  18  19
ATOM     19  C   UNL     1       3.864   1.325   0.725  1.00  0.00     0.077 C 
BRANCH  19  20
ATOM     20  N   UNL     1       5.251   1.773   0.626  1.00  0.00    -0.330 NA
ATOM     21  H   UNL     1       5.860   0.946   0.430  1.00  0.00     0.118 HD
ATOM     22  H   UNL     1       5.337   2.431  -0.182  1.00  0.00     0.118 HD
ENDBRANCH  19  20
ENDBRANCH  18  19
ENDBRANCH  17  18
ENDBRANCH   1  17
TORSDOF 7
