REMARK SMILES C[C@H](N)Cc1ccccc1
REMARK SMILES IDX 1 1 2 2 3 3 4 6 5 7 6 8 10 9 7 10 9 11 8 12
REMARK H PARENT 3 4 3 5
REMARK Flexibility Score: inf
ROOT
ATOM      1  C   UNL     1      -3.107   0.321   0.687  1.00  0.00     0.024 C 
ATOM      2  C   UNL     1      -1.761   0.088  -0.010  1.00  0.00     0.051 C 
ENDROOT
BRANCH   2   3
ATOM      3  N   UNL     1      -1.785  -1.200  -0.710  1.00  0.00    -0.328 NA
ATOM      4  H   UNL     1      -2.584  -1.197  -1.385  1.00  0.00     0.119 HD
ATOM      5  H   UNL     1      -0.925  -1.274  -1.300  1.00  0.00     0.119 HD
ENDBRANCH   2   3
BRANCH   2   6
ATOM      6  C   UNL     1      -0.621   0.117   1.028  1.00  0.00     0.053 C 
BRANCH   6   7
ATOM      7  C   UNL     1       0.737   0.096   0.374  1.00  0.00    -0.046 A 
ATOM      8  C   UNL     1       1.266   1.268  -0.192  1.00  0.00     0.004 A 
ATOM      9  C   UNL     1       1.473  -1.099   0.295  1.00  0.00     0.004 A 
ATOM     10  C   UNL     1       2.516   1.247  -0.818  1.00  0.00     0.000 A 
ATOM     11  C   UNL     1       2.723  -1.116  -0.332  1.00  0.00     0.000 A 
ATOM     12  C   UNL     1       3.244   0.056  -0.887  1.00  0.00     0.000 A 
ENDBRANCH   6   7
ENDBRANCH   2   6
TORSDOF 3
