REMARK SMILES CC[C@H]1[C@@H]2C[C@H]3[C@@H]4N(C)c5ccccc5[C@]45C[C@@H](C2[C@H]5O)N3[C@@H]1O
REMARK SMILES IDX 18 1 17 2 16 3 20 4 19 5 4 6 5 7 6 8 22 9 23 10 3 11 7 12
REMARK SMILES IDX 8 13 9 14 10 15 11 16 12 17 13 18 14 19 15 20 21 21 24 23
REMARK SMILES IDX 2 25 1 26
REMARK H PARENT 21 22 24 24
REMARK Flexibility Score: inf
ROOT
ATOM      1  C   UNL     1       0.705   0.721  -0.970  1.00  0.00     0.066 C 
ATOM      2  C   UNL     1      -0.755   1.027  -1.099  1.00  0.00     0.036 C 
ATOM      3  C   UNL     1      -1.236   0.693   0.300  1.00  0.00     0.047 C 
ATOM      4  C   UNL     1      -0.232   1.438   1.207  1.00  0.00     0.132 C 
ATOM      5  C   UNL     1       1.122   1.210   0.454  1.00  0.00     0.040 C 
ATOM      6  C   UNL     1       2.049   0.101   1.082  1.00  0.00     0.005 C 
ATOM      7  C   UNL     1       1.223  -1.169   1.377  1.00  0.00     0.026 C 
ATOM      8  C   UNL     1       0.281  -1.417   0.154  1.00  0.00     0.083 C 
ATOM      9  N   UNL     1       0.873  -0.753  -1.067  1.00  0.00    -0.270 NA
ATOM     10  C   UNL     1       2.338  -1.012  -1.177  1.00  0.00     0.189 C 
ATOM     11  C   UNL     1       3.107  -0.357   0.034  1.00  0.00     0.036 C 
ATOM     12  C   UNL     1      -1.134  -0.839   0.537  1.00  0.00     0.112 C 
ATOM     13  N   UNL     1      -2.321  -1.393  -0.121  1.00  0.00    -0.369 N 
ATOM     14  C   UNL     1      -2.670  -2.812  -0.096  1.00  0.00     0.144 C 
ATOM     15  C   UNL     1      -3.294  -0.343   0.005  1.00  0.00     0.041 A 
ATOM     16  C   UNL     1      -4.679  -0.457  -0.161  1.00  0.00     0.026 A 
ATOM     17  C   UNL     1      -5.471   0.692  -0.003  1.00  0.00     0.002 A 
ATOM     18  C   UNL     1      -4.877   1.931   0.302  1.00  0.00     0.000 A 
ATOM     19  C   UNL     1      -3.486   2.032   0.462  1.00  0.00     0.006 A 
ATOM     20  C   UNL     1      -2.718   0.869   0.354  1.00  0.00    -0.014 A 
ENDROOT
BRANCH   4  21
ATOM     21  O   UNL     1      -0.518   2.814   1.243  1.00  0.00    -0.392 OA
ATOM     22  H   UNL     1      -1.078   2.971   2.048  1.00  0.00     0.211 HD
ENDBRANCH   4  21
BRANCH  10  23
ATOM     23  O   UNL     1       2.569  -2.397  -1.218  1.00  0.00    -0.378 OA
ATOM     24  H   UNL     1       3.510  -2.522  -1.511  1.00  0.00     0.212 HD
ENDBRANCH  10  23
BRANCH  11  25
ATOM     25  C   UNL     1       4.049   0.795  -0.391  1.00  0.00     0.004 C 
ATOM     26  C   UNL     1       5.307   0.281  -1.091  1.00  0.00     0.004 C 
ENDBRANCH  11  25
TORSDOF 3
