REMARK SMILES CCCCN1CCCC[C@H]1C(=O)Nc1c(C)cccc1C
REMARK SMILES IDX 5 1 6 2 7 3 8 4 9 5 10 6 4 7 3 8 2 9 1 10 11 11 12 12 13 13
REMARK SMILES IDX 14 15 15 16 20 17 16 18 17 19 19 20 21 21 18 22
REMARK H PARENT 13 14
REMARK Flexibility Score: inf
ROOT
ATOM      1  N   UNL     1      -2.024  -0.514  -0.060  1.00  0.00    -0.292 NA
ATOM      2  C   UNL     1      -2.117  -1.721  -0.920  1.00  0.00     0.085 C 
ATOM      3  C   UNL     1      -1.940  -3.031  -0.139  1.00  0.00     0.016 C 
ATOM      4  C   UNL     1      -0.647  -3.007   0.668  1.00  0.00     0.003 C 
ATOM      5  C   UNL     1      -0.627  -1.791   1.592  1.00  0.00     0.029 C 
ATOM      6  C   UNL     1      -0.814  -0.476   0.806  1.00  0.00     0.147 C 
ENDROOT
BRANCH   1   7
ATOM      7  C   UNL     1      -3.282  -0.244   0.677  1.00  0.00     0.085 C 
BRANCH   7   8
ATOM      8  C   UNL     1      -4.194   0.687  -0.137  1.00  0.00     0.015 C 
BRANCH   8   9
ATOM      9  C   UNL     1      -3.530   2.021  -0.519  1.00  0.00    -0.002 C 
ATOM     10  C   UNL     1      -3.227   2.903   0.691  1.00  0.00     0.004 C 
ENDBRANCH   8   9
ENDBRANCH   7   8
ENDBRANCH   1   7
BRANCH   6  11
ATOM     11  C   UNL     1       0.424  -0.106   0.018  1.00  0.00     0.241 C 
ATOM     12  O   UNL     1       0.361   0.063  -1.231  1.00  0.00    -0.273 OA
ATOM     13  N   UNL     1       1.661   0.129   0.705  1.00  0.00    -0.324 N 
ATOM     14  H   UNL     1       1.649   0.230   1.745  1.00  0.00     0.170 HD
BRANCH  13  15
ATOM     15  C   UNL     1       2.867   0.464   0.003  1.00  0.00     0.047 A 
ATOM     16  C   UNL     1       3.406   1.764   0.118  1.00  0.00    -0.027 A 
ATOM     17  C   UNL     1       3.531  -0.505  -0.786  1.00  0.00    -0.027 A 
ATOM     18  C   UNL     1       2.731   2.802   0.973  1.00  0.00     0.046 C 
ATOM     19  C   UNL     1       4.585   2.089  -0.571  1.00  0.00     0.005 A 
ATOM     20  C   UNL     1       4.694  -0.147  -1.485  1.00  0.00     0.005 A 
ATOM     21  C   UNL     1       3.006  -1.911  -0.899  1.00  0.00     0.046 C 
ATOM     22  C   UNL     1       5.218   1.140  -1.374  1.00  0.00     0.001 A 
ENDBRANCH  13  15
ENDBRANCH   6  11
TORSDOF 5
