REMARK SMILES CC1COc2c(N3CCN(C)CC3)c(F)cc3c(=O)c(C(=O)O)cn1c23
REMARK SMILES IDX 1 1 2 2 3 3 4 4 5 5 26 6 25 7 24 8 20 9 18 10 19 11 17 12
REMARK SMILES IDX 16 13 14 14 15 15 6 16 21 17 22 18 23 19 7 21 8 22 13 23
REMARK SMILES IDX 9 24 12 25 10 26 11 27
REMARK H PARENT 23 20
REMARK Flexibility Score: inf
ROOT
ATOM      1  C   UNL     1      -3.518  -3.058   0.227  1.00  0.00     0.035 C 
ATOM      2  C   UNL     1      -2.470  -2.031   0.707  1.00  0.00     0.122 C 
ATOM      3  C   UNL     1      -1.081  -2.515   0.253  1.00  0.00     0.254 C 
ATOM      4  O   UNL     1      -0.107  -1.520   0.514  1.00  0.00    -0.487 OA
ATOM      5  C   UNL     1      -0.361  -0.188   0.203  1.00  0.00     0.170 A 
ATOM      6  C   UNL     1      -1.695   0.239   0.034  1.00  0.00     0.097 A 
ATOM      7  N   UNL     1      -2.738  -0.642   0.230  1.00  0.00    -0.337 N 
ATOM      8  C   UNL     1      -4.030  -0.185   0.142  1.00  0.00     0.106 A 
ATOM      9  C   UNL     1      -4.331   1.135  -0.232  1.00  0.00     0.124 A 
ATOM     10  C   UNL     1      -3.270   2.027  -0.463  1.00  0.00     0.204 A 
ATOM     11  O   UNL     1      -3.503   3.222  -0.797  1.00  0.00    -0.288 OA
ATOM     12  C   UNL     1      -1.945   1.590  -0.308  1.00  0.00     0.053 A 
ATOM     13  C   UNL     1      -0.864   2.480  -0.465  1.00  0.00     0.056 A 
ATOM     14  C   UNL     1       0.446   2.047  -0.269  1.00  0.00     0.151 A 
ATOM     15  F   UNL     1       1.469   2.924  -0.431  1.00  0.00    -0.205 F 
ATOM     16  C   UNL     1       0.707   0.714   0.068  1.00  0.00     0.118 A 
ENDROOT
BRANCH   9  17
ATOM     17  C   UNL     1      -5.754   1.559  -0.352  1.00  0.00     0.341 C 
ATOM     18  O   UNL     1      -6.684   0.728  -0.164  1.00  0.00    -0.246 OA
BRANCH  17  19
ATOM     19  O   UNL     1      -6.084   2.874  -0.673  1.00  0.00    -0.477 OA
ATOM     20  H   UNL     1      -7.052   3.163  -0.755  1.00  0.00     0.297 HD
ENDBRANCH  17  19
ENDBRANCH   9  17
BRANCH  16  21
ATOM     21  N   UNL     1       2.066   0.279   0.247  1.00  0.00    -0.364 N 
ATOM     22  C   UNL     1       2.835   0.743   1.403  1.00  0.00     0.132 C 
ATOM     23  C   UNL     1       2.603  -0.832  -0.543  1.00  0.00     0.132 C 
ATOM     24  C   UNL     1       4.295   0.956   0.999  1.00  0.00     0.105 C 
ATOM     25  C   UNL     1       4.071  -0.561  -0.879  1.00  0.00     0.105 C 
ATOM     26  N   UNL     1       4.829  -0.260   0.352  1.00  0.00    -0.303 NA
ATOM     27  C   UNL     1       6.251  -0.072   0.031  1.00  0.00     0.105 C 
ENDBRANCH  16  21
TORSDOF 3
