REMARK SMILES CC(C)(C)NC[C@H](O)COc1cccc2c1CCCC2=O
REMARK SMILES IDX 7 1 6 2 5 3 2 5 1 6 3 7 4 8 8 9 9 11 10 12 11 13 12 14 16 15
REMARK SMILES IDX 13 16 15 17 17 18 14 19 20 20 18 21 19 22 21 23
REMARK H PARENT 5 4 8 10
REMARK Flexibility Score: inf
ROOT
ATOM      1  C   UNL     1      -1.146  -0.143   0.408  1.00  0.00     0.165 C 
ENDROOT
BRANCH   1   2
ATOM      2  C   UNL     1      -2.551  -0.299  -0.199  1.00  0.00     0.116 C 
BRANCH   2   3
ATOM      3  N   UNL     1      -3.563  -0.264   0.871  1.00  0.00    -0.309 NA
ATOM      4  H   UNL     1      -3.471  -1.156   1.414  1.00  0.00     0.123 HD
BRANCH   3   5
ATOM      5  C   UNL     1      -4.968  -0.121   0.411  1.00  0.00     0.010 C 
ATOM      6  C   UNL     1      -5.887  -0.265   1.643  1.00  0.00     0.027 C 
ATOM      7  C   UNL     1      -5.202   1.282  -0.191  1.00  0.00     0.027 C 
ATOM      8  C   UNL     1      -5.352  -1.209  -0.617  1.00  0.00     0.027 C 
ENDBRANCH   3   5
ENDBRANCH   2   3
ENDBRANCH   1   2
BRANCH   1   9
ATOM      9  O   UNL     1      -1.049   1.056   1.137  1.00  0.00    -0.388 OA
ATOM     10  H   UNL     1      -1.206   1.806   0.505  1.00  0.00     0.211 HD
ENDBRANCH   1   9
BRANCH   1  11
ATOM     11  C   UNL     1      -0.062  -0.204  -0.676  1.00  0.00     0.262 C 
BRANCH  11  12
ATOM     12  O   UNL     1       1.223  -0.083  -0.071  1.00  0.00    -0.491 OA
BRANCH  12  13
ATOM     13  C   UNL     1       2.442  -0.098  -0.770  1.00  0.00     0.123 A 
ATOM     14  C   UNL     1       2.490  -0.251  -2.169  1.00  0.00     0.047 A 
ATOM     15  C   UNL     1       3.646   0.041  -0.046  1.00  0.00     0.005 A 
ATOM     16  C   UNL     1       3.714  -0.284  -2.835  1.00  0.00     0.005 A 
ATOM     17  C   UNL     1       4.886  -0.021  -0.725  1.00  0.00     0.024 A 
ATOM     18  C   UNL     1       3.609   0.166   1.464  1.00  0.00     0.040 C 
ATOM     19  C   UNL     1       4.906  -0.173  -2.120  1.00  0.00     0.012 A 
ATOM     20  C   UNL     1       6.154   0.092   0.037  1.00  0.00     0.163 C 
ATOM     21  C   UNL     1       4.848   0.886   2.008  1.00  0.00     0.013 C 
ATOM     22  C   UNL     1       6.131   0.201   1.534  1.00  0.00     0.081 C 
ATOM     23  O   UNL     1       7.264   0.049  -0.558  1.00  0.00    -0.294 OA
ENDBRANCH  12  13
ENDBRANCH  11  12
ENDBRANCH   1  11
TORSDOF 7
