REMARK SMILES CC[C@H]1OC(=O)[C@H](C)[C@@H](O[C@H]2C[C@@](C)(OC)[C@@H](O)[C@H](C)O2)[C@H](C)[C@@H](O[C@@H]2O[C@H](C)C[C@H](N(C)C)[C@H]2O)[C@](C)(OC)C[C@@H](C)C(=O)[C@H](C)[C@@H](O)[C@]1(C)O
REMARK SMILES IDX 9 1 10 2 11 3 12 4 21 5 13 6 19 7 14 8 17 9 20 10 15 11
REMARK SMILES IDX 16 12 18 13 22 15 23 16 24 17 25 18 26 19 27 20 35 21 28 22
REMARK SMILES IDX 31 23 29 24 30 25 36 26 32 28 33 29 34 30 37 31 38 32 41 33
REMARK SMILES IDX 42 34 43 35 44 36 45 37 46 38 47 39 39 41 40 42 7 43 8 44
REMARK SMILES IDX 5 45 6 46 4 47 3 48 50 49 51 50 48 51 49 53 52 55 2 57 1 58
REMARK H PARENT 18 14 36 27 49 54 52 56
REMARK Flexibility Score: 60.00
ROOT
ATOM      1  C   UNL     1      -1.583   0.648   1.050  1.00  0.00     0.141 C 
ENDROOT
BRANCH   1   2
ATOM      2  O   UNL     1      -1.622   2.061   1.229  1.00  0.00    -0.348 OA
BRANCH   2   3
ATOM      3  C   UNL     1      -1.565   2.804   0.018  1.00  0.00     0.253 C 
ATOM      4  C   UNL     1      -2.724   3.825  -0.035  1.00  0.00     0.100 C 
ATOM      5  O   UNL     1      -0.305   3.443  -0.115  1.00  0.00    -0.347 OA
ATOM      6  C   UNL     1      -2.569   4.925   1.040  1.00  0.00     0.098 C 
ATOM      7  C   UNL     1      -0.086   4.396   0.912  1.00  0.00     0.150 C 
ATOM      8  C   UNL     1      -3.668   5.987   0.789  1.00  0.00     0.045 C 
ATOM      9  C   UNL     1      -1.139   5.523   0.839  1.00  0.00     0.175 C 
ATOM     10  C   UNL     1       1.332   4.950   0.749  1.00  0.00     0.041 C 
BRANCH   6  11
ATOM     11  O   UNL     1      -2.778   4.269   2.292  1.00  0.00    -0.376 OA
ATOM     12  C   UNL     1      -2.498   5.045   3.438  1.00  0.00     0.195 C 
ENDBRANCH   6  11
BRANCH   9  13
ATOM     13  O   UNL     1      -0.841   6.529   1.773  1.00  0.00    -0.387 OA
ATOM     14  H   UNL     1      -1.237   7.377   1.437  1.00  0.00     0.211 HD
ENDBRANCH   9  13
ENDBRANCH   2   3
ENDBRANCH   1   2
BRANCH   1  15
ATOM     15  C   UNL     1      -0.113   0.127   1.273  1.00  0.00     0.048 C 
ATOM     16  C   UNL     1       0.637   0.987   2.315  1.00  0.00     0.013 C 
BRANCH  15  17
ATOM     17  C   UNL     1       0.738  -0.064  -0.054  1.00  0.00     0.158 C 
BRANCH  17  18
ATOM     18  O   UNL     1       2.112  -0.226   0.304  1.00  0.00    -0.343 OA
BRANCH  18  19
ATOM     19  C   UNL     1       2.970   0.744  -0.283  1.00  0.00     0.280 C 
ATOM     20  O   UNL     1       3.338   0.288  -1.566  1.00  0.00    -0.347 OA
ATOM     21  C   UNL     1       4.226   0.898   0.606  1.00  0.00     0.188 C 
ATOM     22  C   UNL     1       4.105   1.263  -2.235  1.00  0.00     0.120 C 
ATOM     23  C   UNL     1       5.280   1.853  -0.047  1.00  0.00     0.092 C 
ATOM     24  C   UNL     1       4.315   0.806  -3.678  1.00  0.00     0.039 C 
ATOM     25  C   UNL     1       5.459   1.444  -1.532  1.00  0.00     0.054 C 
BRANCH  21  26
ATOM     26  O   UNL     1       3.810   1.421   1.844  1.00  0.00    -0.386 OA
ATOM     27  H   UNL     1       3.815   0.667   2.494  1.00  0.00     0.211 HD
ENDBRANCH  21  26
BRANCH  23  28
ATOM     28  N   UNL     1       6.593   1.806   0.680  1.00  0.00    -0.304 NA
ATOM     29  C   UNL     1       7.652   2.561  -0.029  1.00  0.00     0.105 C 
ATOM     30  C   UNL     1       6.481   2.360   2.049  1.00  0.00     0.105 C 
ENDBRANCH  23  28
ENDBRANCH  18  19
ENDBRANCH  17  18
BRANCH  17  31
ATOM     31  C   UNL     1       0.240  -1.305  -0.946  1.00  0.00     0.092 C 
ATOM     32  C   UNL     1      -0.887  -0.782  -1.891  1.00  0.00     0.045 C 
BRANCH  31  33
ATOM     33  C   UNL     1       1.320  -1.928  -1.895  1.00  0.00     0.049 C 
BRANCH  33  34
ATOM     34  C   UNL     1       0.934  -3.244  -2.695  1.00  0.00     0.056 C 
ATOM     35  C   UNL     1       1.969  -4.363  -2.510  1.00  0.00     0.016 C 
BRANCH  34  36
ATOM     36  C   UNL     1      -0.533  -3.758  -2.695  1.00  0.00     0.141 C 
ATOM     37  O   UNL     1      -1.232  -3.380  -3.621  1.00  0.00    -0.299 OA
BRANCH  36  38
ATOM     38  C   UNL     1      -1.044  -4.959  -1.868  1.00  0.00     0.085 CG0
ATOM     39  C   UNL     1      -1.397  -6.101  -2.835  1.00  0.00     0.019 C 
ATOM     40  G   UNL     1      -2.205  -4.774  -0.780  1.00  0.00     0.000 G0
ENDBRANCH  36  38
ENDBRANCH  34  36
ENDBRANCH  33  34
ENDBRANCH  31  33
BRANCH  31  41
ATOM     41  O   UNL     1      -0.282  -2.332  -0.116  1.00  0.00    -0.376 OA
ATOM     42  C   UNL     1       0.698  -2.972   0.703  1.00  0.00     0.195 C 
ENDBRANCH  31  41
ENDBRANCH  17  31
ENDBRANCH  15  17
ENDBRANCH   1  15
BRANCH   1  43
ATOM     43  C   UNL     1      -2.604   0.003   2.043  1.00  0.00     0.125 C 
ATOM     44  C   UNL     1      -4.000   0.614   1.882  1.00  0.00     0.023 C 
BRANCH  43  45
ATOM     45  C   UNL     1      -2.733  -1.503   1.914  1.00  0.00     0.311 C 
ATOM     46  O   UNL     1      -2.749  -2.192   2.966  1.00  0.00    -0.252 OA
BRANCH  45  47
ATOM     47  O   UNL     1      -2.827  -2.132   0.659  1.00  0.00    -0.459 OA
BRANCH  47  48
ATOM     48  C   UNL     1      -3.915  -2.962   0.196  1.00  0.00     0.210 C 
BRANCH  48  49
ATOM     49  C   UNL     1      -3.467  -3.836  -1.059  1.00  0.00     0.125 C 
ATOM     50  C   UNL     1      -4.654  -4.706  -1.558  1.00  0.00     0.049 C 
BRANCH  49  51
ATOM     51  C   UNL     1      -2.205  -4.774  -0.780  1.00  0.00     0.159 CG0
ATOM     52  G   UNL     1      -1.044  -4.959  -1.868  1.00  0.00     0.000 G0
BRANCH  51  53
ATOM     53  O   UNL     1      -1.633  -4.466   0.461  1.00  0.00    -0.389 OA
ATOM     54  H   UNL     1      -1.179  -5.287   0.800  1.00  0.00     0.211 HD
ENDBRANCH  51  53
ENDBRANCH  49  51
BRANCH  49  55
ATOM     55  O   UNL     1      -3.155  -2.942  -2.098  1.00  0.00    -0.384 OA
ATOM     56  H   UNL     1      -3.962  -2.413  -2.325  1.00  0.00     0.211 HD
ENDBRANCH  49  55
ENDBRANCH  48  49
BRANCH  48  57
ATOM     57  C   UNL     1      -4.729  -3.688   1.316  1.00  0.00     0.045 C 
ATOM     58  C   UNL     1      -4.063  -4.880   2.009  1.00  0.00     0.008 C 
ENDBRANCH  48  57
ENDBRANCH  47  48
ENDBRANCH  45  47
ENDBRANCH  43  45
ENDBRANCH   1  43
TORSDOF 12
