REMARK SMILES CC(NC(C)(C)C)C(=O)c1cccc(Cl)c1
REMARK SMILES IDX 1 1 2 2 3 3 4 5 5 6 6 7 7 8 8 9 9 10 10 11 16 12 11 13 14 14
REMARK SMILES IDX 12 15 15 16 13 17
REMARK H PARENT 3 4
REMARK Flexibility Score: inf
ROOT
ATOM      1  C   UNL     1      -1.042   0.354   2.409  1.00  0.00     0.033 C 
ATOM      2  C   UNL     1      -0.269   0.173   1.091  1.00  0.00     0.123 C 
ENDROOT
BRANCH   2   3
ATOM      3  N   UNL     1      -1.061   0.582  -0.088  1.00  0.00    -0.303 NA
ATOM      4  H   UNL     1      -1.361   1.582   0.008  1.00  0.00     0.123 HD
BRANCH   3   5
ATOM      5  C   UNL     1      -2.192  -0.267  -0.551  1.00  0.00     0.010 C 
ATOM      6  C   UNL     1      -1.953  -1.780  -0.333  1.00  0.00     0.027 C 
ATOM      7  C   UNL     1      -2.333  -0.030  -2.066  1.00  0.00     0.027 C 
ATOM      8  C   UNL     1      -3.518   0.152   0.124  1.00  0.00     0.027 C 
ENDBRANCH   3   5
ENDBRANCH   2   3
BRANCH   2   9
ATOM      9  C   UNL     1       1.011   0.983   1.103  1.00  0.00     0.179 C 
ATOM     10  O   UNL     1       1.041   2.076   1.736  1.00  0.00    -0.292 OA
BRANCH   9  11
ATOM     11  C   UNL     1       2.215   0.560   0.339  1.00  0.00     0.021 A 
ATOM     12  C   UNL     1       3.474   1.102   0.659  1.00  0.00     0.032 A 
ATOM     13  C   UNL     1       2.125  -0.365  -0.720  1.00  0.00     0.012 A 
ATOM     14  C   UNL     1       4.616   0.719  -0.053  1.00  0.00     0.041 A 
ATOM     15  C   UNL     1       3.269  -0.744  -1.429  1.00  0.00     0.002 A 
ATOM     16  Cl  UNL     1       6.179   1.398   0.363  1.00  0.00    -0.084 Cl
ATOM     17  C   UNL     1       4.512  -0.205  -1.096  1.00  0.00     0.020 A 
ENDBRANCH   9  11
ENDBRANCH   2   9
TORSDOF 4
