REMARK SMILES CCOC(=O)C1=C(C)NC(C)=C(C(=O)OC)C1c1cccc(Cl)c1Cl
REMARK SMILES IDX 6 1 7 2 8 3 9 4 10 5 11 6 12 7 17 8 4 10 5 11 3 12 2 13 1 14
REMARK SMILES IDX 18 15 24 16 19 17 25 18 22 19 20 20 23 21 21 22 13 23 14 24
REMARK SMILES IDX 15 25 16 26
REMARK H PARENT 9 9
REMARK Flexibility Score: inf
ROOT
ATOM      1  C   UNL     1       1.085  -0.206  -0.275  1.00  0.00     0.068 C 
ATOM      2  C   UNL     1       1.473  -0.412  -1.554  1.00  0.00     0.023 C 
ATOM      3  C   UNL     1       2.902  -0.250  -2.006  1.00  0.00     0.065 C 
ATOM      4  N   UNL     1       0.504  -0.825  -2.528  1.00  0.00    -0.362 N 
ATOM      5  C   UNL     1      -0.828  -1.215  -2.164  1.00  0.00     0.023 C 
ATOM      6  C   UNL     1      -1.658  -1.927  -3.201  1.00  0.00     0.065 C 
ATOM      7  C   UNL     1      -1.284  -0.949  -0.917  1.00  0.00     0.068 C 
ATOM      8  C   UNL     1      -0.398  -0.207   0.075  1.00  0.00     0.099 C 
ATOM      9  H   UNL     1       0.807  -0.936  -3.522  1.00  0.00     0.166 HD
ENDROOT
BRANCH   1  10
ATOM     10  C   UNL     1       2.051   0.089   0.819  1.00  0.00     0.336 C 
ATOM     11  O   UNL     1       1.672   0.757   1.820  1.00  0.00    -0.246 OA
BRANCH  10  12
ATOM     12  O   UNL     1       3.359  -0.409   0.770  1.00  0.00    -0.463 OA
BRANCH  12  13
ATOM     13  C   UNL     1       4.314  -0.221   1.812  1.00  0.00     0.230 C 
ATOM     14  C   UNL     1       4.022  -1.152   2.983  1.00  0.00     0.049 C 
ENDBRANCH  12  13
ENDBRANCH  10  12
ENDBRANCH   1  10
BRANCH   8  15
ATOM     15  C   UNL     1      -0.901   1.224   0.239  1.00  0.00    -0.015 A 
ATOM     16  C   UNL     1      -1.419   1.712   1.468  1.00  0.00     0.063 A 
ATOM     17  C   UNL     1      -0.861   2.091  -0.872  1.00  0.00     0.006 A 
ATOM     18  Cl  UNL     1      -1.502   0.692   2.909  1.00  0.00    -0.082 Cl
ATOM     19  C   UNL     1      -1.877   3.041   1.553  1.00  0.00     0.059 A 
ATOM     20  C   UNL     1      -1.319   3.403  -0.772  1.00  0.00     0.002 A 
ATOM     21  Cl  UNL     1      -2.527   3.693   3.054  1.00  0.00    -0.083 Cl
ATOM     22  C   UNL     1      -1.824   3.877   0.435  1.00  0.00     0.022 A 
ENDBRANCH   8  15
BRANCH   7  23
ATOM     23  C   UNL     1      -2.667  -1.278  -0.468  1.00  0.00     0.336 C 
ATOM     24  O   UNL     1      -3.617  -1.364  -1.294  1.00  0.00    -0.246 OA
BRANCH  23  25
ATOM     25  O   UNL     1      -2.920  -1.442   0.898  1.00  0.00    -0.466 OA
ATOM     26  C   UNL     1      -4.219  -1.699   1.415  1.00  0.00     0.282 C 
ENDBRANCH  23  25
ENDBRANCH   7  23
TORSDOF 6
