REMARK SMILES CN1CCN(CCCN2c3ccccc3Sc3ccc(S(=O)(=O)N(C)C)cc32)CC1
REMARK SMILES IDX 8 1 9 2 20 3 27 4 19 5 28 6 18 7 17 8 16 9 10 10 15 11 11 12
REMARK SMILES IDX 14 13 12 14 13 15 21 16 22 17 23 18 24 19 25 20 26 21 7 22
REMARK SMILES IDX 6 23 5 24 4 25 29 26 3 27 30 28 2 29 1 30
REMARK H PARENT
REMARK Flexibility Score: inf
ROOT
ATOM      1  C   UNL     1      -0.490  -0.006   1.572  1.00  0.00     0.124 C 
ENDROOT
BRANCH   1   2
ATOM      2  N   UNL     1      -1.162  -1.203   1.043  1.00  0.00    -0.340 N 
ATOM      3  C   UNL     1      -3.629  -0.132  -1.596  1.00  0.00     0.084 A 
ATOM      4  C   UNL     1      -2.525  -0.114  -0.733  1.00  0.00     0.049 A 
ATOM      5  C   UNL     1      -4.590  -1.143  -1.475  1.00  0.00     0.023 A 
ATOM      6  C   UNL     1      -2.374  -1.102   0.257  1.00  0.00     0.057 A 
ATOM      7  C   UNL     1      -4.458  -2.121  -0.489  1.00  0.00     0.019 A 
ATOM      8  C   UNL     1      -3.367  -2.092   0.385  1.00  0.00     0.036 A 
ATOM      9  S   UNL     1      -3.292  -3.249   1.752  1.00  0.00    -0.086 SA
ATOM     10  C   UNL     1      -0.650  -2.527   1.332  1.00  0.00     0.055 A 
ATOM     11  C   UNL     1      -1.551  -3.595   1.509  1.00  0.00     0.036 A 
ATOM     12  C   UNL     1       0.731  -2.799   1.320  1.00  0.00     0.027 A 
ATOM     13  C   UNL     1      -1.084  -4.910   1.602  1.00  0.00     0.017 A 
ATOM     14  C   UNL     1       1.194  -4.113   1.439  1.00  0.00     0.002 A 
ATOM     15  C   UNL     1       0.288  -5.168   1.564  1.00  0.00     0.001 A 
BRANCH   3  16
ATOM     16  S   UNL     1      -3.798   1.126  -2.818  1.00  0.00     0.242 S 
ATOM     17  O   UNL     1      -2.492   1.263  -3.549  1.00  0.00    -0.207 OA
ATOM     18  O   UNL     1      -4.864   0.742  -3.809  1.00  0.00    -0.207 OA
BRANCH  16  19
ATOM     19  N   UNL     1      -4.208   2.641  -2.053  1.00  0.00    -0.204 NA
ATOM     20  C   UNL     1      -5.495   2.506  -1.358  1.00  0.00     0.124 C 
ATOM     21  C   UNL     1      -4.296   3.692  -3.073  1.00  0.00     0.124 C 
ENDBRANCH  16  19
ENDBRANCH   3  16
ENDBRANCH   1   2
BRANCH   1  22
ATOM     22  C   UNL     1       0.561   0.549   0.587  1.00  0.00     0.037 C 
BRANCH  22  23
ATOM     23  C   UNL     1       1.819   1.044   1.319  1.00  0.00     0.086 C 
BRANCH  23  24
ATOM     24  N   UNL     1       2.788   1.659   0.384  1.00  0.00    -0.301 NA
ATOM     25  C   UNL     1       3.835   2.416   1.117  1.00  0.00     0.100 C 
ATOM     26  C   UNL     1       3.348   0.655  -0.558  1.00  0.00     0.100 C 
ATOM     27  C   UNL     1       5.111   1.586   1.313  1.00  0.00     0.099 C 
ATOM     28  C   UNL     1       4.735   1.062  -1.081  1.00  0.00     0.099 C 
ATOM     29  N   UNL     1       5.722   1.220   0.014  1.00  0.00    -0.304 NA
ATOM     30  C   UNL     1       6.559   0.019   0.160  1.00  0.00     0.105 C 
ENDBRANCH  23  24
ENDBRANCH  22  23
ENDBRANCH   1  22
TORSDOF 6
