REMARK SMILES Cc1cccc(C)c1NC(=O)C(C)N
REMARK SMILES IDX 13 1 12 2 14 3 10 6 11 7 9 8 8 10 2 11 6 12 1 13 3 14 5 15
REMARK SMILES IDX 7 16 4 17
REMARK H PARENT 14 4 14 5 9 9
REMARK Flexibility Score: inf
ROOT
ATOM      1  C   UNL     1       3.633   0.459   0.878  1.00  0.00     0.035 C 
ATOM      2  C   UNL     1       2.778   0.388  -0.389  1.00  0.00     0.138 C 
ENDROOT
BRANCH   2   3
ATOM      3  N   UNL     1       3.198   1.420  -1.339  1.00  0.00    -0.320 NA
ATOM      4  H   UNL     1       2.983   2.366  -0.946  1.00  0.00     0.119 HD
ATOM      5  H   UNL     1       2.638   1.312  -2.216  1.00  0.00     0.119 HD
ENDBRANCH   2   3
BRANCH   2   6
ATOM      6  C   UNL     1       1.314   0.527  -0.055  1.00  0.00     0.241 C 
ATOM      7  O   UNL     1       0.907   1.550   0.563  1.00  0.00    -0.273 OA
ATOM      8  N   UNL     1       0.382  -0.482  -0.467  1.00  0.00    -0.324 N 
ATOM      9  H   UNL     1       0.685  -1.196  -1.167  1.00  0.00     0.170 HD
BRANCH   8  10
ATOM     10  C   UNL     1      -1.006  -0.434  -0.100  1.00  0.00     0.047 A 
ATOM     11  C   UNL     1      -1.400  -0.600   1.250  1.00  0.00    -0.027 A 
ATOM     12  C   UNL     1      -1.987  -0.249  -1.099  1.00  0.00    -0.027 A 
ATOM     13  C   UNL     1      -0.390  -0.837   2.341  1.00  0.00     0.046 C 
ATOM     14  C   UNL     1      -2.760  -0.523   1.586  1.00  0.00     0.005 A 
ATOM     15  C   UNL     1      -3.343  -0.205  -0.739  1.00  0.00     0.005 A 
ATOM     16  C   UNL     1      -1.595  -0.102  -2.544  1.00  0.00     0.046 C 
ATOM     17  C   UNL     1      -3.724  -0.331   0.597  1.00  0.00     0.001 A 
ENDBRANCH   8  10
ENDBRANCH   2   6
TORSDOF 3
