REMARK SMILES CCc1nc(C2CC2)c(C(N)=O)n1Cc1ccc2oc(-c3ccccc3NS(=O)(=O)C(F)(F)F)c(Br)c2c1
REMARK SMILES IDX 15 1 38 2 37 3 18 4 19 5 20 6 35 7 36 8 17 9 16 10 14 11
REMARK SMILES IDX 13 12 3 13 4 14 5 15 9 16 2 17 1 18 6 19 7 20 8 21 10 22
REMARK SMILES IDX 11 23 12 24 21 27 22 28 26 29 23 30 25 31 24 32 27 33 28 35
REMARK SMILES IDX 29 36 30 37 31 38 32 39 33 40 34 41
REMARK H PARENT 11 25 11 26 27 34
REMARK Flexibility Score: inf
ROOT
ATOM      1  C   UNL     1      -0.989   0.448   1.728  1.00  0.00    -0.027 A 
ATOM      2  C   UNL     1      -0.511  -0.548   0.849  1.00  0.00     0.019 A 
ATOM      3  C   UNL     1       0.770  -0.398   0.323  1.00  0.00     0.036 A 
ATOM      4  C   UNL     1       1.565   0.667   0.646  1.00  0.00     0.136 A 
ATOM      5  O   UNL     1       2.732   0.567   0.057  1.00  0.00    -0.455 OA
ATOM      6  C   UNL     1       2.734  -0.550  -0.651  1.00  0.00     0.151 A 
ATOM      7  C   UNL     1       1.504  -1.200  -0.521  1.00  0.00     0.072 A 
ATOM      8  Br  UNL     1       0.977  -2.905  -1.209  1.00  0.00    -0.046 Br
ATOM      9  C   UNL     1       1.132   1.668   1.510  1.00  0.00     0.048 A 
ATOM     10  C   UNL     1      -0.159   1.551   2.060  1.00  0.00     0.009 A 
ENDROOT
BRANCH   1  11
ATOM     11  C   UNL     1      -2.368   0.323   2.320  1.00  0.00     0.159 C 
BRANCH  11  12
ATOM     12  N   UNL     1      -3.394   0.354   1.266  1.00  0.00    -0.319 N 
ATOM     13  C   UNL     1      -3.778   1.427   0.527  1.00  0.00     0.109 A 
ATOM     14  N   UNL     1      -4.620   1.102  -0.477  1.00  0.00    -0.237 NA
ATOM     15  C   UNL     1      -4.784  -0.228  -0.356  1.00  0.00     0.075 A 
ATOM     16  C   UNL     1      -4.032  -0.697   0.703  1.00  0.00     0.130 A 
BRANCH  13  17
ATOM     17  C   UNL     1      -3.268   2.831   0.705  1.00  0.00     0.072 C 
ATOM     18  C   UNL     1      -2.254   3.178  -0.383  1.00  0.00     0.012 C 
ENDBRANCH  13  17
BRANCH  15  19
ATOM     19  C   UNL     1      -5.608  -1.052  -1.301  1.00  0.00     0.041 C 
ATOM     20  C   UNL     1      -7.009  -0.517  -1.557  1.00  0.00     0.011 C 
ATOM     21  C   UNL     1      -6.812  -1.729  -0.661  1.00  0.00     0.011 C 
ENDBRANCH  15  19
BRANCH  16  22
ATOM     22  C   UNL     1      -3.913  -2.108   1.111  1.00  0.00     0.267 C 
ATOM     23  N   UNL     1      -4.090  -2.494   2.472  1.00  0.00    -0.364 N 
ATOM     24  O   UNL     1      -3.700  -2.990   0.240  1.00  0.00    -0.268 OA
ATOM     25  H   UNL     1      -4.409  -1.804   3.187  1.00  0.00     0.160 HD
ATOM     26  H   UNL     1      -3.967  -3.491   2.753  1.00  0.00     0.160 HD
ENDBRANCH  16  22
ENDBRANCH  11  12
ENDBRANCH   1  11
BRANCH   6  27
ATOM     27  C   UNL     1       3.903  -1.012  -1.432  1.00  0.00     0.043 A 
ATOM     28  C   UNL     1       3.715  -1.527  -2.726  1.00  0.00     0.014 A 
ATOM     29  C   UNL     1       5.217  -0.884  -0.922  1.00  0.00     0.060 A 
ATOM     30  C   UNL     1       4.808  -1.932  -3.494  1.00  0.00     0.001 A 
ATOM     31  C   UNL     1       6.305  -1.296  -1.711  1.00  0.00     0.027 A 
ATOM     32  C   UNL     1       6.100  -1.817  -2.989  1.00  0.00     0.002 A 
BRANCH  29  33
ATOM     33  N   UNL     1       5.442  -0.405   0.416  1.00  0.00    -0.275 N 
ATOM     34  H   UNL     1       4.747  -0.623   1.165  1.00  0.00     0.180 HD
BRANCH  33  35
ATOM     35  S   UNL     1       6.702   0.718   0.807  1.00  0.00     0.333 S 
ATOM     36  O   UNL     1       6.439   1.283   2.175  1.00  0.00    -0.197 OA
ATOM     37  O   UNL     1       8.030   0.016   0.818  1.00  0.00    -0.197 OA
BRANCH  35  38
ATOM     38  C   UNL     1       6.720   2.061  -0.365  1.00  0.00     0.516 C 
ATOM     39  F   UNL     1       5.439   2.552  -0.519  1.00  0.00    -0.155 F 
ATOM     40  F   UNL     1       7.542   3.069   0.100  1.00  0.00    -0.155 F 
ATOM     41  F   UNL     1       7.191   1.617  -1.586  1.00  0.00    -0.155 F 
ENDBRANCH  35  38
ENDBRANCH  33  35
ENDBRANCH  29  33
ENDBRANCH   6  27
TORSDOF 9
