REMARK SMILES COc1ccc(Cl)cc1C(=O)NCCc1ccc(S(=O)(=O)NC(=O)NC2CCCCC2)cc1
REMARK SMILES IDX 14 1 13 2 12 3 10 4 11 5 9 7 3 8 4 9 8 10 5 11 6 12 7 13
REMARK SMILES IDX 2 14 1 15 15 16 16 17 33 18 17 19 32 20 18 21 19 22 20 23
REMARK SMILES IDX 21 24 22 25 23 26 24 28 25 29 26 31 27 32 31 33 28 34 30 35
REMARK SMILES IDX 29 36
REMARK H PARENT 12 6 22 27 25 30
REMARK Flexibility Score: inf
ROOT
ATOM      1  C   UNL     1       3.210  -1.051   1.385  1.00  0.00     0.057 C 
ENDROOT
BRANCH   1   2
ATOM      2  C   UNL     1       3.468  -0.411   0.018  1.00  0.00     0.121 C 
BRANCH   2   3
ATOM      3  N   UNL     1       4.892  -0.137  -0.156  1.00  0.00    -0.352 N 
ATOM      4  C   UNL     1       5.537   1.000   0.440  1.00  0.00     0.255 C 
ATOM      5  O   UNL     1       4.901   1.733   1.245  1.00  0.00    -0.269 OA
ATOM      6  H   UNL     1       5.454  -0.810  -0.725  1.00  0.00     0.163 HD
BRANCH   4   7
ATOM      7  C   UNL     1       6.957   1.306   0.151  1.00  0.00     0.083 A 
ATOM      8  C   UNL     1       7.486   1.191  -1.155  1.00  0.00     0.131 A 
ATOM      9  C   UNL     1       8.850   1.473  -1.371  1.00  0.00     0.049 A 
ATOM     10  C   UNL     1       7.786   1.741   1.199  1.00  0.00     0.038 A 
ATOM     11  C   UNL     1       9.666   1.885  -0.315  1.00  0.00     0.024 A 
ATOM     12  C   UNL     1       9.134   2.025   0.967  1.00  0.00     0.042 A 
ATOM     13  Cl  UNL     1      10.160   2.553   2.289  1.00  0.00    -0.084 Cl
BRANCH   8  14
ATOM     14  O   UNL     1       6.636   0.825  -2.212  1.00  0.00    -0.496 OA
ATOM     15  C   UNL     1       7.046   0.671  -3.566  1.00  0.00     0.278 C 
ENDBRANCH   8  14
ENDBRANCH   4   7
ENDBRANCH   2   3
ENDBRANCH   1   2
BRANCH   1  16
ATOM     16  C   UNL     1       1.746  -1.354   1.559  1.00  0.00    -0.046 A 
ATOM     17  C   UNL     1       0.889  -0.399   2.129  1.00  0.00     0.005 A 
ATOM     18  C   UNL     1       1.215  -2.569   1.100  1.00  0.00     0.005 A 
ATOM     19  C   UNL     1      -0.477  -0.667   2.257  1.00  0.00     0.022 A 
ATOM     20  C   UNL     1      -0.152  -2.835   1.227  1.00  0.00     0.022 A 
ATOM     21  C   UNL     1      -1.004  -1.885   1.807  1.00  0.00     0.087 A 
BRANCH  21  22
ATOM     22  S   UNL     1      -2.729  -2.201   1.971  1.00  0.00     0.265 S 
ATOM     23  O   UNL     1      -3.078  -3.506   1.313  1.00  0.00    -0.201 OA
ATOM     24  O   UNL     1      -3.078  -2.267   3.432  1.00  0.00    -0.201 OA
BRANCH  22  25
ATOM     25  N   UNL     1      -3.619  -0.925   1.210  1.00  0.00    -0.231 N 
ATOM     26  C   UNL     1      -5.050  -0.912   1.194  1.00  0.00     0.328 C 
ATOM     27  H   UNL     1      -3.091  -0.155   0.744  1.00  0.00     0.185 HD
ATOM     28  O   UNL     1      -5.696  -1.844   1.745  1.00  0.00    -0.248 OA
ATOM     29  N   UNL     1      -5.744   0.168   0.554  1.00  0.00    -0.335 N 
ATOM     30  H   UNL     1      -5.175   0.974   0.210  1.00  0.00     0.165 HD
BRANCH  29  31
ATOM     31  C   UNL     1      -7.210   0.211   0.453  1.00  0.00     0.083 C 
ATOM     32  C   UNL     1      -7.704   1.631   0.102  1.00  0.00     0.025 C 
ATOM     33  C   UNL     1      -7.719  -0.813  -0.581  1.00  0.00     0.025 C 
ATOM     34  C   UNL     1      -7.375   2.028  -1.346  1.00  0.00     0.002 C 
ATOM     35  C   UNL     1      -7.350  -0.407  -2.013  1.00  0.00     0.002 C 
ATOM     36  C   UNL     1      -7.895   0.986  -2.342  1.00  0.00     0.000 C 
ENDBRANCH  29  31
ENDBRANCH  22  25
ENDBRANCH  21  22
ENDBRANCH   1  16
TORSDOF 8
