REMARK SMILES C[C@@H]1O[C@@H](O[C@H]2C[C@@H](O)[C@]3(CO)[C@H]4[C@H](O)C[C@]5(C)[C@@H](C6=CC(=O)OC6)CC[C@]5(O)[C@@H]4CC[C@]3(O)C2)[C@H](O)[C@H](O)[C@H]1O
REMARK SMILES IDX 30 1 31 2 32 3 33 4 35 5 6 6 7 7 8 8 10 9 13 10 14 11 16 12
REMARK SMILES IDX 17 13 18 14 19 15 26 16 27 17 28 18 29 19 11 21 12 22 15 24
REMARK SMILES IDX 34 26 9 28 20 30 21 31 25 32 22 33 24 34 23 35 5 36 4 37
REMARK SMILES IDX 3 38 36 39 2 40 38 41 1 42 40 43 37 44 39 46 41 48
REMARK H PARENT 29 20 12 23 15 25 34 27 9 29 37 45 39 47 41 49
REMARK Flexibility Score: inf
ROOT
ATOM      1  C   UNL     1      -2.197   0.076   0.847  1.00  0.00     0.028 C 
ATOM      2  C   UNL     1      -1.449   1.014   1.835  1.00  0.00     0.010 C 
ATOM      3  C   UNL     1       0.065   0.937   1.716  1.00  0.00     0.036 C 
ATOM      4  C   UNL     1       0.547  -0.528   1.662  1.00  0.00     0.078 C 
ATOM      5  C   UNL     1       2.103  -0.520   1.751  1.00  0.00     0.068 C 
ATOM      6  C   UNL     1       2.794   0.190   0.565  1.00  0.00     0.127 C 
ATOM      7  C   UNL     1       2.040  -0.023  -0.764  1.00  0.00     0.064 C 
ATOM      8  C   UNL     1       1.185  -1.301  -0.762  1.00  0.00     0.128 C 
ATOM      9  C   UNL     1       0.025  -1.277   0.333  1.00  0.00     0.054 C 
ATOM     10  C   UNL     1      -1.279  -0.534  -0.270  1.00  0.00     0.038 C 
ATOM     11  C   UNL     1      -2.167  -1.421  -1.207  1.00  0.00     0.119 C 
ATOM     12  C   UNL     1      -3.347  -0.630  -1.778  1.00  0.00     0.042 C 
ATOM     13  C   UNL     1      -4.318  -0.056  -0.704  1.00  0.00     0.006 C 
ATOM     14  C   UNL     1      -5.130  -1.219  -0.071  1.00  0.00     0.015 C 
ATOM     15  C   UNL     1      -5.223   0.997  -1.422  1.00  0.00     0.028 C 
ATOM     16  C   UNL     1      -4.434   2.317  -1.376  1.00  0.00     0.012 C 
ATOM     17  C   UNL     1      -3.275   2.114  -0.396  1.00  0.00     0.037 C 
ATOM     18  C   UNL     1      -3.520   0.776   0.338  1.00  0.00     0.074 C 
ENDROOT
BRANCH  18  19
ATOM     19  O   UNL     1      -4.339   1.072   1.450  1.00  0.00    -0.389 OA
ATOM     20  H   UNL     1      -4.403   0.270   2.030  1.00  0.00     0.211 HD
ENDBRANCH  18  19
BRANCH   9  21
ATOM     21  C   UNL     1      -0.318  -2.766   0.716  1.00  0.00     0.169 C 
BRANCH  21  22
ATOM     22  O   UNL     1      -0.457  -3.588  -0.411  1.00  0.00    -0.396 OA
ATOM     23  H   UNL     1      -0.726  -4.482  -0.074  1.00  0.00     0.210 HD
ENDBRANCH  21  22
ENDBRANCH   9  21
BRANCH  11  24
ATOM     24  O   UNL     1      -1.421  -1.906  -2.293  1.00  0.00    -0.393 OA
ATOM     25  H   UNL     1      -1.911  -2.686  -2.662  1.00  0.00     0.210 HD
ENDBRANCH  11  24
BRANCH   4  26
ATOM     26  O   UNL     1       0.018  -1.142   2.827  1.00  0.00    -0.389 OA
ATOM     27  H   UNL     1       0.630  -1.854   3.149  1.00  0.00     0.211 HD
ENDBRANCH   4  26
BRANCH   8  28
ATOM     28  O   UNL     1       2.041  -2.406  -0.582  1.00  0.00    -0.392 OA
ATOM     29  H   UNL     1       2.529  -2.546  -1.439  1.00  0.00     0.210 HD
ENDBRANCH   8  28
BRANCH  15  30
ATOM     30  C   UNL     1      -6.637   1.145  -0.876  1.00  0.00    -0.022 C 
ATOM     31  C   UNL     1      -7.000   1.821   0.214  1.00  0.00     0.096 C 
ATOM     32  C   UNL     1      -7.844   0.548  -1.555  1.00  0.00     0.265 C 
ATOM     33  C   UNL     1      -8.432   1.693   0.321  1.00  0.00     0.331 C 
ATOM     34  O   UNL     1      -8.927   0.936  -0.721  1.00  0.00    -0.458 OA
ATOM     35  O   UNL     1      -9.145   2.203   1.224  1.00  0.00    -0.247 OA
ENDBRANCH  15  30
BRANCH   6  36
ATOM     36  O   UNL     1       4.107  -0.329   0.430  1.00  0.00    -0.346 OA
BRANCH  36  37
ATOM     37  C   UNL     1       5.052   0.453   1.146  1.00  0.00     0.282 C 
ATOM     38  O   UNL     1       5.504   1.549   0.361  1.00  0.00    -0.344 OA
ATOM     39  C   UNL     1       6.233  -0.429   1.604  1.00  0.00     0.202 C 
ATOM     40  C   UNL     1       6.153   1.114  -0.827  1.00  0.00     0.150 C 
ATOM     41  C   UNL     1       7.056  -0.899   0.396  1.00  0.00     0.179 C 
ATOM     42  C   UNL     1       6.499   2.349  -1.661  1.00  0.00     0.041 C 
ATOM     43  C   UNL     1       7.430   0.305  -0.493  1.00  0.00     0.174 C 
BRANCH  39  44
ATOM     44  O   UNL     1       7.059   0.294   2.484  1.00  0.00    -0.385 OA
ATOM     45  H   UNL     1       6.592   0.322   3.361  1.00  0.00     0.211 HD
ENDBRANCH  39  44
BRANCH  41  46
ATOM     46  O   UNL     1       8.213  -1.558   0.850  1.00  0.00    -0.387 OA
ATOM     47  H   UNL     1       8.523  -2.139   0.110  1.00  0.00     0.211 HD
ENDBRANCH  41  46
BRANCH  43  48
ATOM     48  O   UNL     1       8.023  -0.147  -1.683  1.00  0.00    -0.388 OA
ATOM     49  H   UNL     1       8.987  -0.288  -1.492  1.00  0.00     0.211 HD
ENDBRANCH  43  48
ENDBRANCH  36  37
ENDBRANCH   6  36
TORSDOF 12
