REMARK SMILES CCCCC1=NC2(CCCC2)C(=O)N1Cc1ccc(-c2ccccc2-c2nn[nH]n2)cc1
REMARK SMILES IDX 5 1 6 2 7 3 8 4 9 5 10 6 11 7 12 8 13 9 14 10 4 11 3 12 2 13
REMARK SMILES IDX 1 14 15 15 16 16 17 17 32 18 18 19 31 20 19 21 20 22 21 23
REMARK SMILES IDX 25 24 22 25 24 26 23 27 26 28 30 29 27 30 29 31 28 32
REMARK H PARENT 29 33
REMARK Flexibility Score: inf
ROOT
ATOM      1  C   UNL     1      -3.089   0.409   0.698  1.00  0.00     0.107 C 
ATOM      2  N   UNL     1      -3.646   1.108  -0.243  1.00  0.00    -0.256 NA
ATOM      3  C   UNL     1      -2.691   2.078  -0.786  1.00  0.00     0.141 C 
ATOM      4  C   UNL     1      -2.485   1.860  -2.280  1.00  0.00     0.041 C 
ATOM      5  C   UNL     1      -3.525   2.742  -2.965  1.00  0.00     0.003 C 
ATOM      6  C   UNL     1      -4.014   3.754  -1.925  1.00  0.00     0.003 C 
ATOM      7  C   UNL     1      -3.223   3.498  -0.647  1.00  0.00     0.041 C 
ATOM      8  C   UNL     1      -1.474   1.804   0.032  1.00  0.00     0.256 C 
ATOM      9  O   UNL     1      -0.384   2.434  -0.037  1.00  0.00    -0.272 OA
ATOM     10  N   UNL     1      -1.715   0.730   0.925  1.00  0.00    -0.294 N 
ENDROOT
BRANCH   1  11
ATOM     11  C   UNL     1      -3.831  -0.682   1.413  1.00  0.00     0.075 C 
BRANCH  11  12
ATOM     12  C   UNL     1      -3.436  -2.055   0.860  1.00  0.00     0.008 C 
BRANCH  12  13
ATOM     13  C   UNL     1      -4.229  -3.175   1.543  1.00  0.00    -0.003 C 
ATOM     14  C   UNL     1      -3.827  -4.543   0.999  1.00  0.00     0.004 C 
ENDBRANCH  12  13
ENDBRANCH  11  12
ENDBRANCH   1  11
BRANCH  10  15
ATOM     15  C   UNL     1      -0.859   0.314   2.038  1.00  0.00     0.162 C 
BRANCH  15  16
ATOM     16  C   UNL     1       0.508  -0.069   1.537  1.00  0.00    -0.028 A 
ATOM     17  C   UNL     1       1.660   0.527   2.075  1.00  0.00     0.006 A 
ATOM     18  C   UNL     1       0.644  -1.051   0.542  1.00  0.00     0.006 A 
ATOM     19  C   UNL     1       2.928   0.158   1.614  1.00  0.00     0.009 A 
ATOM     20  C   UNL     1       1.909  -1.416   0.078  1.00  0.00     0.009 A 
ATOM     21  C   UNL     1       3.058  -0.803   0.600  1.00  0.00    -0.018 A 
BRANCH  21  22
ATOM     22  C   UNL     1       4.396  -1.206   0.115  1.00  0.00    -0.007 A 
ATOM     23  C   UNL     1       4.801  -2.534   0.330  1.00  0.00     0.009 A 
ATOM     24  C   UNL     1       5.286  -0.298  -0.524  1.00  0.00     0.031 A 
ATOM     25  C   UNL     1       6.072  -2.961  -0.052  1.00  0.00     0.001 A 
ATOM     26  C   UNL     1       6.569  -0.750  -0.892  1.00  0.00     0.013 A 
ATOM     27  C   UNL     1       6.957  -2.069  -0.656  1.00  0.00     0.001 A 
BRANCH  24  28
ATOM     28  C   UNL     1       4.915   1.104  -0.849  1.00  0.00     0.205 A 
ATOM     29  N   UNL     1       5.807   2.074  -1.131  1.00  0.00    -0.134 NA
ATOM     30  N   UNL     1       3.653   1.573  -0.940  1.00  0.00    -0.108 NA
ATOM     31  N   UNL     1       5.064   3.140  -1.375  1.00  0.00    -0.177 N 
ATOM     32  N   UNL     1       3.780   2.849  -1.265  1.00  0.00    -0.050 NA
ATOM     33  H   UNL     1       5.438   4.080  -1.627  1.00  0.00     0.216 HD
ENDBRANCH  24  28
ENDBRANCH  21  22
ENDBRANCH  15  16
ENDBRANCH  10  15
TORSDOF 7
