REMARK SMILES CC1=CC(=O)N2CC(=O)N(C)c3ccc(Cl)cc3C2(c2ccccc2)O1
REMARK SMILES IDX 12 1 18 2 17 3 15 4 16 5 14 6 13 7 10 8 11 9 8 10 9 11 19 13
REMARK SMILES IDX 26 14 6 15 2 16 4 17 1 18 3 19 5 20 20 21 21 22 25 23 22 24
REMARK SMILES IDX 24 25 23 26 7 27
REMARK H PARENT
REMARK Flexibility Score: 90.00
ROOT
ATOM      1  C   UNL     1      -1.824  -0.680   0.179  1.00  0.00     0.053 A 
ATOM      2  C   UNL     1      -0.738  -0.083   0.882  1.00  0.00     0.047 A 
ATOM      3  C   UNL     1      -0.786  -0.069   2.297  1.00  0.00     0.033 A 
ATOM      4  C   UNL     1      -1.888  -0.576   2.988  1.00  0.00     0.041 A 
ATOM      5  Cl  UNL     1      -1.923  -0.528   4.741  1.00  0.00    -0.084 Cl
ATOM      6  C   UNL     1      -2.959  -1.123   2.288  1.00  0.00     0.022 A 
ATOM      7  C   UNL     1      -2.925  -1.182   0.897  1.00  0.00     0.028 A 
ENDROOT
BRANCH   1   8
ATOM      8  N   UNL     1      -1.803  -0.839  -1.253  1.00  0.00    -0.313 N 
ATOM      9  C   UNL     1      -2.204  -2.110  -1.859  1.00  0.00     0.153 C 
BRANCH   8  10
ATOM     10  C   UNL     1      -1.721   0.314  -2.094  1.00  0.00     0.246 CG0
ATOM     11  O   UNL     1      -2.698   0.627  -2.827  1.00  0.00    -0.272 OA
ATOM     12  G   UNL     1      -0.446   1.075  -2.192  1.00  0.00     0.000 G0
ENDBRANCH   8  10
ENDBRANCH   1   8
BRANCH   2  13
ATOM     13  C   UNL     1       0.488   0.489   0.146  1.00  0.00     0.240 C 
ATOM     14  O   UNL     1       1.354   1.151   1.085  1.00  0.00    -0.464 OA
ATOM     15  N   UNL     1       0.016   1.480  -0.855  1.00  0.00    -0.284 N 
ATOM     16  C   UNL     1       1.173   2.472   1.518  1.00  0.00     0.102 C 
ATOM     17  C   UNL     1      -0.238   2.825  -0.401  1.00  0.00     0.254 C 
ATOM     18  C   UNL     1       1.895   2.947   2.738  1.00  0.00     0.087 C 
ATOM     19  C   UNL     1       0.378   3.296   0.839  1.00  0.00     0.113 C 
ATOM     20  O   UNL     1      -0.973   3.608  -1.062  1.00  0.00    -0.269 OA
BRANCH  13  21
ATOM     21  C   UNL     1       1.353  -0.595  -0.505  1.00  0.00     0.022 A 
ATOM     22  C   UNL     1       1.156  -1.977  -0.283  1.00  0.00     0.010 A 
ATOM     23  C   UNL     1       2.464  -0.197  -1.277  1.00  0.00     0.010 A 
ATOM     24  C   UNL     1       2.003  -2.921  -0.873  1.00  0.00     0.001 A 
ATOM     25  C   UNL     1       3.308  -1.145  -1.862  1.00  0.00     0.001 A 
ATOM     26  C   UNL     1       3.073  -2.506  -1.666  1.00  0.00     0.000 A 
ENDBRANCH  13  21
BRANCH  15  27
ATOM     27  C   UNL     1      -0.446   1.075  -2.192  1.00  0.00     0.225 CG0
ATOM     28  G   UNL     1      -1.721   0.314  -2.094  1.00  0.00     0.000 G0
ENDBRANCH  15  27
ENDBRANCH   2  13
TORSDOF 1
