REMARK SMILES CC[C@@H](NC(C)C)[C@@H](O)c1ccc(O)c2[nH]c(=O)ccc12
REMARK SMILES IDX 3 1 2 2 1 3 4 4 5 6 6 7 7 8 8 9 9 10 10 12 11 13 21 14 12 15
REMARK SMILES IDX 15 16 20 17 13 18 16 19 19 20 17 21 18 23 14 24
REMARK H PARENT 4 5 9 11 16 22 14 25
REMARK Flexibility Score: inf
ROOT
ATOM      1  C   UNL     1       1.437   0.840  -0.332  1.00  0.00     0.087 C 
ENDROOT
BRANCH   1   2
ATOM      2  C   UNL     1       0.925   1.908   0.666  1.00  0.00     0.018 C 
ATOM      3  C   UNL     1       0.294   1.348   1.945  1.00  0.00     0.005 C 
ENDBRANCH   1   2
BRANCH   1   4
ATOM      4  N   UNL     1       2.125  -0.246   0.403  1.00  0.00    -0.309 NA
ATOM      5  H   UNL     1       1.465  -1.018   0.636  1.00  0.00     0.123 HD
BRANCH   4   6
ATOM      6  C   UNL     1       3.351  -0.737  -0.258  1.00  0.00     0.047 C 
ATOM      7  C   UNL     1       4.547   0.105   0.198  1.00  0.00     0.024 C 
ATOM      8  C   UNL     1       3.596  -2.214   0.082  1.00  0.00     0.024 C 
ENDBRANCH   4   6
ENDBRANCH   1   4
BRANCH   1   9
ATOM      9  C   UNL     1       0.361   0.339  -1.357  1.00  0.00     0.162 C 
BRANCH   9  10
ATOM     10  O   UNL     1       0.973  -0.529  -2.279  1.00  0.00    -0.387 OA
ATOM     11  H   UNL     1       0.348  -0.632  -3.044  1.00  0.00     0.211 HD
ENDBRANCH   9  10
BRANCH   9  12
ATOM     12  C   UNL     1      -0.869  -0.341  -0.735  1.00  0.00    -0.008 A 
ATOM     13  C   UNL     1      -0.784  -1.716  -0.458  1.00  0.00     0.011 A 
ATOM     14  C   UNL     1      -2.095   0.337  -0.443  1.00  0.00     0.008 A 
ATOM     15  C   UNL     1      -1.833  -2.401   0.139  1.00  0.00     0.049 A 
ATOM     16  C   UNL     1      -3.171  -0.374   0.178  1.00  0.00     0.091 A 
ATOM     17  C   UNL     1      -2.300   1.702  -0.743  1.00  0.00     0.016 A 
ATOM     18  C   UNL     1      -3.016  -1.754   0.473  1.00  0.00     0.139 A 
ATOM     19  N   UNL     1      -4.337   0.288   0.470  1.00  0.00    -0.319 N 
ATOM     20  C   UNL     1      -3.498   2.330  -0.425  1.00  0.00     0.072 A 
ATOM     21  C   UNL     1      -4.512   1.606   0.187  1.00  0.00     0.248 A 
ATOM     22  H   UNL     1      -5.141  -0.196   0.919  1.00  0.00     0.170 HD
ATOM     23  O   UNL     1      -5.599   2.175   0.475  1.00  0.00    -0.270 OA
BRANCH  18  24
ATOM     24  O   UNL     1      -4.003  -2.529   1.091  1.00  0.00    -0.506 OA
ATOM     25  H   UNL     1      -4.897  -2.190   1.412  1.00  0.00     0.293 HD
ENDBRANCH  18  24
ENDBRANCH   9  12
ENDBRANCH   1   9
TORSDOF 7
