REMARK SMILES COc1ccc(C(=O)Nc2c(Cl)cncc2Cl)cc1OC1CCCC1
REMARK SMILES IDX 3 1 4 2 5 3 6 4 18 5 19 6 2 7 1 8 20 9 21 10 22 11 25 12
REMARK SMILES IDX 23 13 24 14 7 15 8 16 9 17 10 19 11 20 16 21 12 22 13 23
REMARK SMILES IDX 15 24 17 25 14 26
REMARK H PARENT 9 18
REMARK Flexibility Score: inf
ROOT
ATOM      1  C   UNL     1      -0.950  -2.277   1.214  1.00  0.00     0.160 A 
ATOM      2  C   UNL     1       0.378  -2.491   1.623  1.00  0.00     0.051 A 
ATOM      3  C   UNL     1       1.393  -1.623   1.218  1.00  0.00     0.018 A 
ATOM      4  C   UNL     1       1.103  -0.520   0.400  1.00  0.00     0.044 A 
ATOM      5  C   UNL     1      -0.223  -0.312  -0.017  1.00  0.00     0.064 A 
ATOM      6  C   UNL     1      -1.253  -1.182   0.391  1.00  0.00     0.162 A 
ENDROOT
BRANCH   1   7
ATOM      7  O   UNL     1      -1.997  -3.128   1.604  1.00  0.00    -0.493 OA
ATOM      8  C   UNL     1      -1.838  -4.273   2.434  1.00  0.00     0.278 C 
ENDBRANCH   1   7
BRANCH   6   9
ATOM      9  O   UNL     1      -2.591  -0.999  -0.000  1.00  0.00    -0.487 OA
BRANCH   9  10
ATOM     10  C   UNL     1      -3.086   0.089  -0.784  1.00  0.00     0.173 C 
ATOM     11  C   UNL     1      -4.534  -0.174  -1.178  1.00  0.00     0.045 C 
ATOM     12  C   UNL     1      -3.094   1.401   0.012  1.00  0.00     0.045 C 
ATOM     13  C   UNL     1      -5.205   1.185  -1.179  1.00  0.00     0.004 C 
ATOM     14  C   UNL     1      -4.504   1.975  -0.088  1.00  0.00     0.004 C 
ENDBRANCH   9  10
ENDBRANCH   6   9
BRANCH   4  15
ATOM     15  C   UNL     1       2.177   0.403  -0.041  1.00  0.00     0.255 C 
ATOM     16  O   UNL     1       1.996   1.127  -1.059  1.00  0.00    -0.269 OA
ATOM     17  N   UNL     1       3.410   0.505   0.689  1.00  0.00    -0.319 N 
ATOM     18  H   UNL     1       3.421   0.229   1.696  1.00  0.00     0.170 HD
BRANCH  17  19
ATOM     19  C   UNL     1       4.548   1.212   0.173  1.00  0.00     0.082 A 
ATOM     20  C   UNL     1       5.157   0.821  -1.035  1.00  0.00     0.084 A 
ATOM     21  C   UNL     1       5.091   2.290   0.895  1.00  0.00     0.084 A 
ATOM     22  Cl  UNL     1       4.603  -0.581  -1.942  1.00  0.00    -0.080 Cl
ATOM     23  C   UNL     1       6.267   1.530  -1.502  1.00  0.00     0.133 A 
ATOM     24  C   UNL     1       6.203   2.967   0.385  1.00  0.00     0.133 A 
ATOM     25  Cl  UNL     1       4.379   2.830   2.410  1.00  0.00    -0.080 Cl
ATOM     26  N   UNL     1       6.760   2.577  -0.791  1.00  0.00    -0.261 NA
ENDBRANCH  17  19
ENDBRANCH   4  15
TORSDOF 5
