REMARK SMILES C[C@]1(O)CC[C@H]2[C@@H]3CCC4=CC(=O)CC[C@]4(C)[C@@]3(F)[C@@H](O)C[C@@]21C
REMARK SMILES IDX 6 1 5 2 4 3 2 4 1 5 23 6 24 7 22 8 20 9 18 10 19 11 7 12
REMARK SMILES IDX 8 13 9 14 10 15 11 16 12 17 13 18 14 19 15 20 16 21 17 22
REMARK SMILES IDX 3 23 21 25
REMARK H PARENT 3 24 21 26
REMARK Flexibility Score: inf
ROOT
ATOM      1  C   UNL     1      -1.343   0.120   0.854  1.00  0.00     0.004 C 
ATOM      2  C   UNL     1      -2.303  -0.236   1.980  1.00  0.00     0.007 C 
ATOM      3  C   UNL     1      -3.687   0.179   1.450  1.00  0.00     0.036 C 
ATOM      4  C   UNL     1      -3.530   0.512  -0.067  1.00  0.00     0.068 C 
ATOM      5  C   UNL     1      -3.592   2.045  -0.288  1.00  0.00     0.042 C 
ATOM      6  C   UNL     1      -2.145  -0.130  -0.432  1.00  0.00     0.002 C 
ATOM      7  C   UNL     1      -2.378  -1.654  -0.722  1.00  0.00     0.015 C 
ATOM      8  C   UNL     1      -1.364   0.511  -1.613  1.00  0.00     0.045 C 
ATOM      9  C   UNL     1       0.100  -0.009  -1.727  1.00  0.00     0.153 C 
ATOM     10  C   UNL     1       0.886   0.083  -0.369  1.00  0.00     0.148 C 
ATOM     11  F   UNL     1       1.002   1.443  -0.108  1.00  0.00    -0.240 F 
ATOM     12  C   UNL     1       0.062  -0.528   0.834  1.00  0.00     0.034 C 
ATOM     13  C   UNL     1       0.790  -0.299   2.184  1.00  0.00     0.012 C 
ATOM     14  C   UNL     1       2.225  -0.838   2.160  1.00  0.00     0.032 C 
ATOM     15  C   UNL     1       2.954  -0.237   0.984  1.00  0.00    -0.057 C 
ATOM     16  C   UNL     1       3.872   0.721   1.213  1.00  0.00     0.047 C 
ATOM     17  C   UNL     1       4.373   1.592   0.142  1.00  0.00     0.155 C 
ATOM     18  O   UNL     1       5.283   2.426   0.391  1.00  0.00    -0.295 OA
ATOM     19  C   UNL     1       3.747   1.555  -1.214  1.00  0.00     0.081 C 
ATOM     20  C   UNL     1       3.261   0.140  -1.524  1.00  0.00     0.023 C 
ATOM     21  C   UNL     1       2.365  -0.501  -0.407  1.00  0.00     0.026 C 
ATOM     22  C   UNL     1       2.410  -2.036  -0.666  1.00  0.00     0.020 C 
ENDROOT
BRANCH   4  23
ATOM     23  O   UNL     1      -4.568  -0.080  -0.817  1.00  0.00    -0.390 OA
ATOM     24  H   UNL     1      -5.432   0.240  -0.446  1.00  0.00     0.211 HD
ENDBRANCH   4  23
BRANCH   9  25
ATOM     25  O   UNL     1       0.117  -1.311  -2.248  1.00  0.00    -0.390 OA
ATOM     26  H   UNL     1      -0.118  -1.243  -3.211  1.00  0.00     0.211 HD
ENDBRANCH   9  25
TORSDOF 2
