REMARK SMILES CCN(CC)CCCC(C)Nc1c2ccc(Cl)cc2nc2ccc(OC)cc12
REMARK SMILES IDX 8 1 7 2 6 3 3 4 2 5 1 6 4 7 5 8 9 9 10 10 11 11 12 13 28 14
REMARK SMILES IDX 13 15 27 16 21 17 19 18 14 19 24 20 22 21 20 22 18 23 15 24
REMARK SMILES IDX 23 25 16 26 17 27 25 28 26 29
REMARK H PARENT 11 12
REMARK Flexibility Score: inf
ROOT
ATOM      1  C   UNL     1       1.032   0.422   1.029  1.00  0.00     0.026 C 
ENDROOT
BRANCH   1   2
ATOM      2  C   UNL     1       1.569   1.702   0.360  1.00  0.00     0.018 C 
BRANCH   2   3
ATOM      3  C   UNL     1       2.540   1.443  -0.804  1.00  0.00     0.084 C 
BRANCH   3   4
ATOM      4  N   UNL     1       3.707   0.637  -0.377  1.00  0.00    -0.304 NA
BRANCH   4   5
ATOM      5  C   UNL     1       4.667   1.437   0.430  1.00  0.00     0.081 C 
ATOM      6  C   UNL     1       4.795   0.836   1.825  1.00  0.00     0.021 C 
ENDBRANCH   4   5
BRANCH   4   7
ATOM      7  C   UNL     1       4.365   0.013  -1.548  1.00  0.00     0.081 C 
ATOM      8  C   UNL     1       5.230  -1.172  -1.120  1.00  0.00     0.021 C 
ENDBRANCH   4   7
ENDBRANCH   3   4
ENDBRANCH   2   3
ENDBRANCH   1   2
BRANCH   1   9
ATOM      9  C   UNL     1       0.066  -0.395   0.132  1.00  0.00     0.076 C 
ATOM     10  C   UNL     1       0.764  -1.616  -0.480  1.00  0.00     0.031 C 
BRANCH   9  11
ATOM     11  N   UNL     1      -1.083  -0.848   0.922  1.00  0.00    -0.381 N 
ATOM     12  H   UNL     1      -0.896  -1.376   1.805  1.00  0.00     0.160 HD
BRANCH  11  13
ATOM     13  C   UNL     1      -2.393  -0.946   0.338  1.00  0.00     0.053 A 
ATOM     14  C   UNL     1      -3.145   0.221   0.065  1.00  0.00     0.028 A 
ATOM     15  C   UNL     1      -2.944  -2.213   0.034  1.00  0.00     0.024 A 
ATOM     16  C   UNL     1      -2.684   1.509   0.410  1.00  0.00     0.059 A 
ATOM     17  C   UNL     1      -4.413   0.090  -0.547  1.00  0.00     0.073 A 
ATOM     18  C   UNL     1      -4.220  -2.277  -0.575  1.00  0.00     0.074 A 
ATOM     19  C   UNL     1      -2.257  -3.415   0.300  1.00  0.00     0.014 A 
ATOM     20  C   UNL     1      -3.465   2.648   0.130  1.00  0.00     0.119 A 
ATOM     21  C   UNL     1      -5.177   1.225  -0.833  1.00  0.00     0.033 A 
ATOM     22  N   UNL     1      -4.905  -1.138  -0.847  1.00  0.00    -0.248 NA
ATOM     23  C   UNL     1      -4.785  -3.515  -0.901  1.00  0.00     0.049 A 
ATOM     24  C   UNL     1      -2.830  -4.646  -0.030  1.00  0.00     0.021 A 
ATOM     25  C   UNL     1      -4.704   2.494  -0.499  1.00  0.00     0.048 A 
ATOM     26  C   UNL     1      -4.091  -4.698  -0.629  1.00  0.00     0.043 A 
ATOM     27  Cl  UNL     1      -4.804  -6.247  -1.041  1.00  0.00    -0.084 Cl
BRANCH  20  28
ATOM     28  O   UNL     1      -3.052   3.947   0.465  1.00  0.00    -0.497 OA
ATOM     29  C   UNL     1      -1.820   4.262   1.107  1.00  0.00     0.278 C 
ENDBRANCH  20  28
ENDBRANCH  11  13
ENDBRANCH   9  11
ENDBRANCH   1   9
TORSDOF 9
