REMARK SMILES C#C[C@]1(O)CC[C@H]2[C@@H]3CCc4cc(OC)ccc4[C@H]3CC[C@@]21C
REMARK SMILES IDX 7 1 6 2 5 3 3 4 22 5 23 6 21 7 20 8 19 9 18 10 11 11 10 12
REMARK SMILES IDX 9 13 8 14 12 15 13 16 16 17 17 18 4 19 2 21 1 22 14 23 15 24
REMARK H PARENT 4 20
REMARK Flexibility Score: inf
ROOT
ATOM      1  C   UNL     1      -1.756   0.867  -0.162  1.00  0.00     0.003 C 
ATOM      2  C   UNL     1      -2.503   2.025   0.489  1.00  0.00     0.008 C 
ATOM      3  C   UNL     1      -3.986   1.610   0.435  1.00  0.00     0.050 C 
ATOM      4  C   UNL     1      -4.034   0.145  -0.078  1.00  0.00     0.130 C 
ATOM      5  C   UNL     1      -2.585  -0.378   0.192  1.00  0.00     0.011 C 
ATOM      6  C   UNL     1      -2.471  -0.793   1.699  1.00  0.00     0.016 C 
ATOM      7  C   UNL     1      -2.088  -1.550  -0.693  1.00  0.00     0.012 C 
ATOM      8  C   UNL     1      -0.565  -1.789  -0.527  1.00  0.00     0.009 C 
ATOM      9  C   UNL     1       0.284  -0.496  -0.726  1.00  0.00     0.023 C 
ATOM     10  C   UNL     1       1.784  -0.688  -0.494  1.00  0.00    -0.041 A 
ATOM     11  C   UNL     1       2.593   0.411  -0.094  1.00  0.00    -0.041 A 
ATOM     12  C   UNL     1       2.006   1.755   0.280  1.00  0.00     0.036 C 
ATOM     13  C   UNL     1       0.558   1.941  -0.180  1.00  0.00     0.009 C 
ATOM     14  C   UNL     1      -0.256   0.681   0.141  1.00  0.00     0.001 C 
ATOM     15  C   UNL     1       3.981   0.244   0.047  1.00  0.00     0.050 A 
ATOM     16  C   UNL     1       4.592  -0.985  -0.250  1.00  0.00     0.119 A 
ATOM     17  C   UNL     1       3.804  -2.047  -0.690  1.00  0.00     0.047 A 
ATOM     18  C   UNL     1       2.423  -1.902  -0.825  1.00  0.00     0.008 A 
ENDROOT
BRANCH   4  19
ATOM     19  O   UNL     1      -5.012  -0.578   0.631  1.00  0.00    -0.377 OA
ATOM     20  H   UNL     1      -4.976  -1.518   0.312  1.00  0.00     0.212 HD
ENDBRANCH   4  19
BRANCH   4  21
ATOM     21  C   UNL     1      -4.391   0.148  -1.519  1.00  0.00    -0.071 C 
ATOM     22  C   UNL     1      -4.682   0.153  -2.689  1.00  0.00     0.007 C 
ENDBRANCH   4  21
BRANCH  16  23
ATOM     23  O   UNL     1       5.975  -1.189  -0.126  1.00  0.00    -0.497 OA
ATOM     24  C   UNL     1       6.899  -0.197   0.310  1.00  0.00     0.278 C 
ENDBRANCH  16  23
TORSDOF 3
