REMARK SMILES C=CC[C@]1(O)CC[C@H]2[C@@H]3CCC4=CCCC[C@@H]4[C@H]3CC[C@@]21C
REMARK SMILES IDX 8 1 7 2 6 3 4 4 21 5 22 6 20 7 19 8 18 9 17 10 16 11 15 12
REMARK SMILES IDX 14 13 13 14 12 15 11 16 10 17 9 18 5 19 3 21 2 22 1 23
REMARK H PARENT 5 20
REMARK Flexibility Score: inf
ROOT
ATOM      1  C   UNL     1       1.154  -0.648  -0.402  1.00  0.00     0.001 C 
ATOM      2  C   UNL     1       2.053  -1.693  -1.046  1.00  0.00     0.007 C 
ATOM      3  C   UNL     1       3.455  -1.420  -0.468  1.00  0.00     0.036 C 
ATOM      4  C   UNL     1       3.307  -0.367   0.670  1.00  0.00     0.074 C 
ATOM      5  C   UNL     1       1.764  -0.406   0.988  1.00  0.00    -0.000 C 
ATOM      6  C   UNL     1       1.486  -1.595   1.975  1.00  0.00     0.015 C 
ATOM      7  C   UNL     1       1.127   0.882   1.568  1.00  0.00     0.010 C 
ATOM      8  C   UNL     1      -0.417   0.780   1.621  1.00  0.00     0.005 C 
ATOM      9  C   UNL     1      -1.058   0.364   0.261  1.00  0.00    -0.001 C 
ATOM     10  C   UNL     1      -2.593   0.131   0.380  1.00  0.00     0.018 C 
ATOM     11  C   UNL     1      -3.320   1.380   0.933  1.00  0.00     0.008 C 
ATOM     12  C   UNL     1      -4.832   1.249   0.773  1.00  0.00     0.005 C 
ATOM     13  C   UNL     1      -5.189   1.139  -0.707  1.00  0.00     0.027 C 
ATOM     14  C   UNL     1      -4.381   0.074  -1.398  1.00  0.00    -0.027 C 
ATOM     15  C   UNL     1      -3.160  -0.317  -0.969  1.00  0.00    -0.071 C 
ATOM     16  C   UNL     1      -2.439  -1.416  -1.716  1.00  0.00     0.031 C 
ATOM     17  C   UNL     1      -0.933  -1.148  -1.771  1.00  0.00     0.008 C 
ATOM     18  C   UNL     1      -0.369  -0.895  -0.359  1.00  0.00    -0.003 C 
ENDROOT
BRANCH   4  19
ATOM     19  O   UNL     1       4.061  -0.813   1.776  1.00  0.00    -0.389 OA
ATOM     20  H   UNL     1       3.927  -0.161   2.513  1.00  0.00     0.211 HD
ENDBRANCH   4  19
BRANCH   4  21
ATOM     21  C   UNL     1       3.901   1.025   0.251  1.00  0.00     0.062 C 
BRANCH  21  22
ATOM     22  C   UNL     1       3.395   1.627  -1.039  1.00  0.00    -0.032 C 
ATOM     23  C   UNL     1       4.040   1.476  -2.199  1.00  0.00     0.004 C 
ENDBRANCH  21  22
ENDBRANCH   4  21
TORSDOF 3
