REMARK SMILES CC[C@@]1(O)C(=O)OCc2c1cc1n(c2=O)Cc2cc3c(CN(C)C)c(O)ccc3nc2-1
REMARK SMILES IDX 3 1 5 2 6 3 7 4 8 5 9 6 10 7 11 8 12 9 13 10 16 11 17 12
REMARK SMILES IDX 18 13 19 14 29 15 28 16 27 17 25 18 20 19 30 20 31 21 14 22
REMARK SMILES IDX 15 23 2 24 1 25 4 26 21 28 22 29 23 30 24 31 26 32
REMARK H PARENT 4 27 26 33
REMARK Flexibility Score: inf
ROOT
ATOM      1  C   UNL     1       5.044   1.196   0.665  1.00  0.00     0.187 C 
ATOM      2  C   UNL     1       6.200   1.432  -0.282  1.00  0.00     0.343 C 
ATOM      3  O   UNL     1       7.188   2.116   0.098  1.00  0.00    -0.248 OA
ATOM      4  O   UNL     1       6.192   0.926  -1.581  1.00  0.00    -0.458 OA
ATOM      5  C   UNL     1       5.289  -0.085  -2.007  1.00  0.00     0.275 C 
ATOM      6  C   UNL     1       3.933   0.085  -1.375  1.00  0.00     0.062 A 
ATOM      7  C   UNL     1       3.817   0.668  -0.082  1.00  0.00     0.009 A 
ATOM      8  C   UNL     1       2.550   0.707   0.538  1.00  0.00     0.036 A 
ATOM      9  C   UNL     1       1.456   0.196  -0.149  1.00  0.00     0.071 A 
ATOM     10  N   UNL     1       1.582  -0.348  -1.377  1.00  0.00    -0.302 N 
ATOM     11  C   UNL     1       0.281  -0.828  -1.865  1.00  0.00     0.164 C 
ATOM     12  C   UNL     1      -0.633  -0.479  -0.728  1.00  0.00     0.000 A 
ATOM     13  C   UNL     1      -2.003  -0.672  -0.597  1.00  0.00     0.018 A 
ATOM     14  C   UNL     1      -2.642  -0.239   0.595  1.00  0.00     0.009 A 
ATOM     15  C   UNL     1      -1.837   0.397   1.597  1.00  0.00     0.072 A 
ATOM     16  C   UNL     1      -2.420   0.868   2.772  1.00  0.00     0.033 A 
ATOM     17  C   UNL     1      -3.789   0.735   2.980  1.00  0.00     0.049 A 
ATOM     18  C   UNL     1      -4.599   0.115   2.023  1.00  0.00     0.120 A 
ATOM     19  C   UNL     1      -4.040  -0.397   0.830  1.00  0.00     0.017 A 
ATOM     20  N   UNL     1      -0.494   0.562   1.414  1.00  0.00    -0.246 NA
ATOM     21  C   UNL     1       0.080   0.122   0.272  1.00  0.00     0.092 A 
ATOM     22  C   UNL     1       2.782  -0.436  -2.009  1.00  0.00     0.258 A 
ATOM     23  O   UNL     1       2.860  -0.985  -3.142  1.00  0.00    -0.269 OA
ENDROOT
BRANCH   1  24
ATOM     24  C   UNL     1       5.478   0.203   1.785  1.00  0.00     0.049 C 
ATOM     25  C   UNL     1       5.896  -1.179   1.276  1.00  0.00     0.008 C 
ENDBRANCH   1  24
BRANCH   1  26
ATOM     26  O   UNL     1       4.732   2.455   1.222  1.00  0.00    -0.374 OA
ATOM     27  H   UNL     1       4.252   2.328   2.081  1.00  0.00     0.212 HD
ENDBRANCH   1  26
BRANCH  19  28
ATOM     28  C   UNL     1      -4.978  -1.073  -0.158  1.00  0.00     0.124 C 
BRANCH  28  29
ATOM     29  N   UNL     1      -5.779  -0.069  -0.890  1.00  0.00    -0.305 NA
ATOM     30  C   UNL     1      -6.939  -0.715  -1.526  1.00  0.00     0.105 C 
ATOM     31  C   UNL     1      -4.969   0.607  -1.918  1.00  0.00     0.105 C 
ENDBRANCH  28  29
ENDBRANCH  19  28
BRANCH  18  32
ATOM     32  O   UNL     1      -5.971   0.006   2.256  1.00  0.00    -0.508 OA
ATOM     33  H   UNL     1      -6.398   0.365   3.101  1.00  0.00     0.293 HD
ENDBRANCH  18  32
TORSDOF 5
