REMARK SMILES O=c1[nH]c2ccccc2n1CCCN1CCC(n2c(=O)[nH]c3cc(Cl)ccc32)CC1
REMARK SMILES IDX 13 1 14 2 17 3 16 4 29 5 15 6 30 7 18 8 25 9 24 10 23 11
REMARK SMILES IDX 26 12 22 13 27 14 28 15 21 16 19 17 20 19 12 20 11 21 10 22
REMARK SMILES IDX 2 23 9 24 1 25 3 26 4 27 8 28 5 30 7 31 6 32
REMARK H PARENT 21 18 3 29
REMARK Flexibility Score: inf
ROOT
ATOM      1  C   UNL     1       1.077  -1.509  -0.989  1.00  0.00     0.086 C 
ENDROOT
BRANCH   1   2
ATOM      2  N   UNL     1      -0.081  -0.657  -0.638  1.00  0.00    -0.303 NA
ATOM      3  C   UNL     1      -2.883  -0.077  -0.050  1.00  0.00     0.095 C 
ATOM      4  C   UNL     1      -2.246   0.270  -1.404  1.00  0.00     0.041 C 
ATOM      5  C   UNL     1      -1.813  -0.135   1.051  1.00  0.00     0.041 C 
ATOM      6  C   UNL     1      -1.094  -0.693  -1.716  1.00  0.00     0.086 C 
ATOM      7  C   UNL     1      -0.685  -1.089   0.643  1.00  0.00     0.086 C 
BRANCH   3   8
ATOM      8  N   UNL     1      -3.947   0.882   0.295  1.00  0.00    -0.289 N 
ATOM      9  Cl  UNL     1      -9.729   0.677   1.267  1.00  0.00    -0.084 Cl
ATOM     10  C   UNL     1      -8.001   0.667   0.965  1.00  0.00     0.043 A 
ATOM     11  C   UNL     1      -7.271   1.867   1.038  1.00  0.00     0.049 A 
ATOM     12  C   UNL     1      -7.349  -0.547   0.649  1.00  0.00     0.023 A 
ATOM     13  C   UNL     1      -5.902   1.809   0.790  1.00  0.00     0.068 A 
ATOM     14  C   UNL     1      -5.964  -0.573   0.404  1.00  0.00     0.030 A 
ATOM     15  C   UNL     1      -5.264   0.636   0.484  1.00  0.00     0.069 A 
ATOM     16  N   UNL     1      -5.018   2.819   0.805  1.00  0.00    -0.305 N 
ATOM     17  C   UNL     1      -3.842   2.224   0.501  1.00  0.00     0.326 A 
ATOM     18  H   UNL     1      -5.197   3.828   1.004  1.00  0.00     0.171 HD
ATOM     19  O   UNL     1      -2.759   2.863   0.418  1.00  0.00    -0.248 OA
ENDBRANCH   3   8
ENDBRANCH   1   2
BRANCH   1  20
ATOM     20  C   UNL     1       2.350  -0.987  -0.311  1.00  0.00     0.038 C 
BRANCH  20  21
ATOM     21  C   UNL     1       3.578  -1.794  -0.742  1.00  0.00     0.129 C 
BRANCH  21  22
ATOM     22  N   UNL     1       4.777  -1.279  -0.079  1.00  0.00    -0.292 N 
ATOM     23  C   UNL     1       5.313  -1.689   1.099  1.00  0.00     0.326 A 
ATOM     24  C   UNL     1       5.538  -0.224  -0.432  1.00  0.00     0.069 A 
ATOM     25  O   UNL     1       4.856  -2.649   1.776  1.00  0.00    -0.248 OA
ATOM     26  N   UNL     1       6.383  -0.956   1.487  1.00  0.00    -0.306 N 
ATOM     27  C   UNL     1       6.511  -0.037   0.513  1.00  0.00     0.066 A 
ATOM     28  C   UNL     1       5.421   0.615  -1.542  1.00  0.00     0.028 A 
ATOM     29  H   UNL     1       6.962  -1.067   2.349  1.00  0.00     0.171 HD
ATOM     30  C   UNL     1       7.443   0.994   0.420  1.00  0.00     0.028 A 
ATOM     31  C   UNL     1       6.350   1.665  -1.667  1.00  0.00     0.002 A 
ATOM     32  C   UNL     1       7.357   1.853  -0.692  1.00  0.00     0.002 A 
ENDBRANCH  21  22
ENDBRANCH  20  21
ENDBRANCH   1  20
TORSDOF 5
