REMARK SMILES CNC1(c2ccccc2Cl)CCCCC1=O
REMARK SMILES IDX 3 1 11 2 12 3 13 4 14 5 15 6 16 7 2 8 1 9 4 11 5 12 9 13
REMARK SMILES IDX 6 14 8 15 10 16 7 17
REMARK H PARENT 2 10
REMARK Flexibility Score: inf
ROOT
ATOM      1  C   UNL     1      -0.363   0.194  -0.007  1.00  0.00     0.104 C 
ATOM      2  C   UNL     1      -0.778  -0.243   1.428  1.00  0.00     0.035 C 
ATOM      3  C   UNL     1      -2.290  -0.431   1.587  1.00  0.00     0.003 C 
ATOM      4  C   UNL     1      -2.788  -1.513   0.630  1.00  0.00     0.008 C 
ATOM      5  C   UNL     1      -2.506  -1.126  -0.821  1.00  0.00     0.078 C 
ATOM      6  C   UNL     1      -1.067  -0.721  -1.023  1.00  0.00     0.157 C 
ATOM      7  O   UNL     1      -0.558  -0.942  -2.113  1.00  0.00    -0.297 OA
ENDROOT
BRANCH   1   8
ATOM      8  N   UNL     1      -0.880   1.560  -0.276  1.00  0.00    -0.304 NA
ATOM      9  C   UNL     1      -0.357   2.209  -1.485  1.00  0.00     0.102 C 
ATOM     10  H   UNL     1      -0.832   2.203   0.544  1.00  0.00     0.123 HD
ENDBRANCH   1   8
BRANCH   1  11
ATOM     11  C   UNL     1       1.193   0.085  -0.058  1.00  0.00    -0.002 A 
ATOM     12  C   UNL     1       1.789  -1.124  -0.505  1.00  0.00     0.007 A 
ATOM     13  C   UNL     1       2.074   1.063   0.504  1.00  0.00     0.046 A 
ATOM     14  C   UNL     1       3.173  -1.280  -0.564  1.00  0.00     0.000 A 
ATOM     15  C   UNL     1       3.463   0.890   0.428  1.00  0.00     0.021 A 
ATOM     16  Cl  UNL     1       1.547   2.480   1.405  1.00  0.00    -0.084 Cl
ATOM     17  C   UNL     1       4.010  -0.264  -0.122  1.00  0.00     0.002 A 
ENDBRANCH   1  11
TORSDOF 2
