REMARK SMILES O=NN(CCCl)C(=O)NC1CCCCC1
REMARK SMILES IDX 3 1 4 2 5 3 6 4 2 5 1 6 7 7 8 8 9 9 10 11 11 12 15 13 12 14
REMARK SMILES IDX 14 15 13 16
REMARK H PARENT 9 10
REMARK Flexibility Score: inf
ROOT
ATOM      1  N   UNL     1       2.763  -1.273  -0.039  1.00  0.00    -0.177 N 
ENDROOT
BRANCH   1   2
ATOM      2  C   UNL     1       3.267  -0.455   1.076  1.00  0.00     0.169 C 
BRANCH   2   3
ATOM      3  C   UNL     1       3.804   0.889   0.578  1.00  0.00     0.133 C 
ATOM      4  Cl  UNL     1       5.291   0.675  -0.383  1.00  0.00    -0.125 Cl
ENDBRANCH   2   3
ENDBRANCH   1   2
BRANCH   1   5
ATOM      5  N   UNL     1       3.576  -2.270  -0.612  1.00  0.00     0.061 NA
ATOM      6  O   UNL     1       4.724  -2.512  -0.185  1.00  0.00    -0.125 OA
ENDBRANCH   1   5
BRANCH   1   7
ATOM      7  C   UNL     1       1.446  -1.083  -0.599  1.00  0.00     0.340 C 
ATOM      8  O   UNL     1       1.065  -1.843  -1.531  1.00  0.00    -0.247 OA
ATOM      9  N   UNL     1       0.560  -0.051  -0.124  1.00  0.00    -0.334 N 
ATOM     10  H   UNL     1       0.902   0.653   0.565  1.00  0.00     0.165 HD
BRANCH   9  11
ATOM     11  C   UNL     1      -0.811   0.085  -0.628  1.00  0.00     0.083 C 
ATOM     12  C   UNL     1      -1.708  -1.008  -0.017  1.00  0.00     0.025 C 
ATOM     13  C   UNL     1      -1.370   1.483  -0.294  1.00  0.00     0.025 C 
ATOM     14  C   UNL     1      -3.159  -0.862  -0.492  1.00  0.00     0.002 C 
ATOM     15  C   UNL     1      -2.819   1.627  -0.773  1.00  0.00     0.002 C 
ATOM     16  C   UNL     1      -3.708   0.533  -0.169  1.00  0.00     0.000 C 
ENDBRANCH   9  11
ENDBRANCH   1   7
TORSDOF 5
