REMARK SMILES N[C@@H](CC(=O)N1CCn2c(nnc2C(F)(F)F)C1)Cc1cc(F)c(F)cc1F
REMARK SMILES IDX 3 1 2 2 1 3 19 6 20 7 21 8 27 9 22 10 26 11 28 12 23 13
REMARK SMILES IDX 24 14 25 15 4 16 5 17 6 18 7 19 18 20 8 21 10 22 9 23 11 24
REMARK SMILES IDX 13 25 12 26 14 27 15 28 16 29 17 30
REMARK H PARENT 1 4 1 5
REMARK Flexibility Score: inf
ROOT
ATOM      1  C   UNL     1       0.736  -1.018   1.804  1.00  0.00     0.119 C 
ENDROOT
BRANCH   1   2
ATOM      2  C   UNL     1       1.868  -0.181   1.161  1.00  0.00     0.064 C 
BRANCH   2   3
ATOM      3  N   UNL     1       1.377   1.110   0.668  1.00  0.00    -0.327 NA
ATOM      4  H   UNL     1       0.661   0.957  -0.078  1.00  0.00     0.119 HD
ATOM      5  H   UNL     1       0.916   1.624   1.455  1.00  0.00     0.119 HD
ENDBRANCH   2   3
BRANCH   2   6
ATOM      6  C   UNL     1       2.593  -0.947   0.035  1.00  0.00     0.058 C 
BRANCH   6   7
ATOM      7  C   UNL     1       3.853  -0.234  -0.392  1.00  0.00    -0.008 A 
ATOM      8  C   UNL     1       3.825   0.654  -1.482  1.00  0.00     0.049 A 
ATOM      9  C   UNL     1       5.056  -0.418   0.316  1.00  0.00     0.129 A 
ATOM     10  C   UNL     1       4.986   1.330  -1.872  1.00  0.00     0.159 A 
ATOM     11  C   UNL     1       6.214   0.260  -0.079  1.00  0.00     0.082 A 
ATOM     12  F   UNL     1       5.108  -1.252   1.387  1.00  0.00    -0.207 F 
ATOM     13  F   UNL     1       4.952   2.178  -2.931  1.00  0.00    -0.204 F 
ATOM     14  C   UNL     1       6.181   1.130  -1.173  1.00  0.00     0.161 A 
ATOM     15  F   UNL     1       7.308   1.783  -1.552  1.00  0.00    -0.204 F 
ENDBRANCH   6   7
ENDBRANCH   2   6
ENDBRANCH   1   2
BRANCH   1  16
ATOM     16  C   UNL     1      -0.338  -1.423   0.822  1.00  0.00     0.224 C 
ATOM     17  O   UNL     1      -0.171  -2.475   0.147  1.00  0.00    -0.275 OA
BRANCH  16  18
ATOM     18  N   UNL     1      -1.511  -0.614   0.596  1.00  0.00    -0.333 N 
ATOM     19  C   UNL     1      -2.034  -0.463  -0.775  1.00  0.00     0.142 C 
ATOM     20  C   UNL     1      -2.081   0.201   1.685  1.00  0.00     0.197 C 
ATOM     21  C   UNL     1      -3.556  -0.642  -0.792  1.00  0.00     0.147 C 
ATOM     22  C   UNL     1      -3.529   0.480   1.430  1.00  0.00     0.153 A 
ATOM     23  N   UNL     1      -4.149   0.130   0.295  1.00  0.00    -0.304 N 
ATOM     24  N   UNL     1      -4.363   1.109   2.279  1.00  0.00    -0.133 NA
ATOM     25  C   UNL     1      -5.418   0.537   0.490  1.00  0.00     0.238 A 
ATOM     26  N   UNL     1      -5.551   1.148   1.686  1.00  0.00    -0.125 NA
BRANCH  25  27
ATOM     27  C   UNL     1      -6.533   0.376  -0.497  1.00  0.00     0.451 C 
ATOM     28  F   UNL     1      -6.615  -0.944  -0.901  1.00  0.00    -0.163 F 
ATOM     29  F   UNL     1      -6.295   1.178  -1.597  1.00  0.00    -0.163 F 
ATOM     30  F   UNL     1      -7.736   0.745   0.079  1.00  0.00    -0.163 F 
ENDBRANCH  25  27
ENDBRANCH  16  18
ENDBRANCH   1  16
TORSDOF 7
