REMARK SMILES COc1ccc(C[C@@H](C)NC[C@H](O)c2ccc(O)c(NC=O)c2)cc1
REMARK SMILES IDX 10 1 8 3 9 4 7 5 6 6 3 7 4 8 25 9 5 10 24 11 2 12 1 13 11 14
REMARK SMILES IDX 12 15 13 16 14 18 23 19 15 20 19 21 16 22 17 23 20 24 21 25
REMARK SMILES IDX 22 27 18 28
REMARK H PARENT 10 2 13 17 20 26 18 29
REMARK Flexibility Score: inf
ROOT
ATOM      1  N   UNL     1      -0.015  -0.272   0.809  1.00  0.00    -0.311 NA
ATOM      2  H   UNL     1       0.708  -0.443   0.075  1.00  0.00     0.123 HD
ENDROOT
BRANCH   1   3
ATOM      3  C   UNL     1       0.330   0.907   1.627  1.00  0.00     0.055 C 
ATOM      4  C   UNL     1      -0.072   2.174   0.865  1.00  0.00     0.024 C 
BRANCH   3   5
ATOM      5  C   UNL     1       1.821   0.939   2.064  1.00  0.00     0.054 C 
BRANCH   5   6
ATOM      6  C   UNL     1       2.809   0.962   0.920  1.00  0.00    -0.046 A 
ATOM      7  C   UNL     1       4.655   1.007  -1.209  1.00  0.00     0.118 A 
ATOM      8  C   UNL     1       4.113   2.199  -0.715  1.00  0.00     0.046 A 
ATOM      9  C   UNL     1       4.271  -0.215  -0.626  1.00  0.00     0.046 A 
ATOM     10  C   UNL     1       3.200   2.180   0.342  1.00  0.00     0.007 A 
ATOM     11  C   UNL     1       3.358  -0.234   0.432  1.00  0.00     0.007 A 
BRANCH   7  12
ATOM     12  O   UNL     1       5.566   1.080  -2.273  1.00  0.00    -0.497 OA
ATOM     13  C   UNL     1       6.191  -0.050  -2.874  1.00  0.00     0.278 C 
ENDBRANCH   7  12
ENDBRANCH   5   6
ENDBRANCH   3   5
ENDBRANCH   1   3
BRANCH   1  14
ATOM     14  C   UNL     1      -0.224  -1.497   1.599  1.00  0.00     0.117 C 
BRANCH  14  15
ATOM     15  C   UNL     1      -1.689  -1.598   2.073  1.00  0.00     0.158 C 
BRANCH  15  16
ATOM     16  O   UNL     1      -1.908  -2.775   2.812  1.00  0.00    -0.387 OA
ATOM     17  H   UNL     1      -1.570  -3.544   2.284  1.00  0.00     0.211 HD
ENDBRANCH  15  16
BRANCH  15  18
ATOM     18  C   UNL     1      -2.662  -1.500   0.914  1.00  0.00    -0.016 A 
ATOM     19  C   UNL     1      -3.450  -0.347   0.755  1.00  0.00     0.036 A 
ATOM     20  C   UNL     1      -2.751  -2.523  -0.047  1.00  0.00     0.010 A 
ATOM     21  C   UNL     1      -4.315  -0.211  -0.340  1.00  0.00     0.083 A 
ATOM     22  C   UNL     1      -3.634  -2.408  -1.122  1.00  0.00     0.049 A 
ATOM     23  C   UNL     1      -4.429  -1.265  -1.268  1.00  0.00     0.139 A 
BRANCH  21  24
ATOM     24  N   UNL     1      -5.103   0.983  -0.464  1.00  0.00    -0.326 N 
ATOM     25  C   UNL     1      -5.187   1.749  -1.671  1.00  0.00     0.341 C 
ATOM     26  H   UNL     1      -5.500   1.410   0.403  1.00  0.00     0.169 HD
ATOM     27  O   UNL     1      -4.487   1.457  -2.677  1.00  0.00    -0.279 OA
ENDBRANCH  21  24
BRANCH  23  28
ATOM     28  O   UNL     1      -5.345  -1.184  -2.316  1.00  0.00    -0.506 OA
ATOM     29  H   UNL     1      -5.448  -1.932  -2.991  1.00  0.00     0.293 HD
ENDBRANCH  23  28
ENDBRANCH  15  18
ENDBRANCH  14  15
ENDBRANCH   1  14
TORSDOF 10
