REMARK SMILES Cc1nc(C)c2c(n1)N(Cc1ccc(-c3ccccc3-c3nn[nH]n3)cc1)C(=O)CC2
REMARK SMILES IDX 11 1 12 2 13 3 14 4 26 5 27 6 10 7 9 8 1 9 2 10 3 11 8 12
REMARK SMILES IDX 4 13 7 14 5 15 6 16 31 17 28 18 30 19 29 20 15 21 16 22
REMARK SMILES IDX 20 23 17 24 19 25 18 26 21 27 25 28 22 29 24 30 23 31
REMARK H PARENT 24 32
REMARK Flexibility Score: inf
ROOT
ATOM      1  C   UNL     1       0.016   0.386  -2.105  1.00  0.00    -0.028 A 
ATOM      2  C   UNL     1       0.236   1.673  -1.586  1.00  0.00     0.006 A 
ATOM      3  C   UNL     1       1.459   1.995  -0.990  1.00  0.00     0.009 A 
ATOM      4  C   UNL     1       2.474   1.032  -0.898  1.00  0.00    -0.018 A 
ATOM      5  C   UNL     1       2.267  -0.245  -1.442  1.00  0.00     0.009 A 
ATOM      6  C   UNL     1       1.045  -0.566  -2.037  1.00  0.00     0.006 A 
ENDROOT
BRANCH   1   7
ATOM      7  C   UNL     1      -1.323   0.012  -2.683  1.00  0.00     0.162 C 
BRANCH   7   8
ATOM      8  N   UNL     1      -2.028  -0.912  -1.780  1.00  0.00    -0.292 N 
ATOM      9  C   UNL     1      -2.972   2.839   1.215  1.00  0.00     0.090 C 
ATOM     10  C   UNL     1      -3.128   1.395   0.877  1.00  0.00     0.127 A 
ATOM     11  N   UNL     1      -3.910   0.596   1.646  1.00  0.00    -0.238 NA
ATOM     12  N   UNL     1      -2.541   0.893  -0.237  1.00  0.00    -0.216 NA
ATOM     13  C   UNL     1      -4.100  -0.716   1.344  1.00  0.00     0.046 A 
ATOM     14  C   UNL     1      -2.680  -0.412  -0.591  1.00  0.00     0.142 A 
ATOM     15  C   UNL     1      -4.989  -1.532   2.235  1.00  0.00     0.067 C 
ATOM     16  C   UNL     1      -3.457  -1.270   0.214  1.00  0.00     0.017 A 
ATOM     17  C   UNL     1      -3.676  -2.704  -0.219  1.00  0.00     0.051 C 
ATOM     18  C   UNL     1      -1.983  -2.335  -2.006  1.00  0.00     0.228 C 
ATOM     19  C   UNL     1      -2.448  -3.272  -0.934  1.00  0.00     0.105 C 
ATOM     20  O   UNL     1      -1.507  -2.805  -3.074  1.00  0.00    -0.274 OA
ENDBRANCH   7   8
ENDBRANCH   1   7
BRANCH   4  21
ATOM     21  C   UNL     1       3.756   1.363  -0.240  1.00  0.00    -0.007 A 
ATOM     22  C   UNL     1       4.558   2.363  -0.817  1.00  0.00     0.009 A 
ATOM     23  C   UNL     1       4.219   0.674   0.914  1.00  0.00     0.031 A 
ATOM     24  C   UNL     1       5.812   2.663  -0.284  1.00  0.00     0.001 A 
ATOM     25  C   UNL     1       5.494   0.981   1.423  1.00  0.00     0.013 A 
ATOM     26  C   UNL     1       6.282   1.968   0.828  1.00  0.00     0.001 A 
BRANCH  23  27
ATOM     27  C   UNL     1       3.392  -0.328   1.634  1.00  0.00     0.205 A 
ATOM     28  N   UNL     1       2.047  -0.397   1.585  1.00  0.00    -0.134 NA
ATOM     29  N   UNL     1       3.892  -1.261   2.471  1.00  0.00    -0.108 NA
ATOM     30  N   UNL     1       1.744  -1.397   2.393  1.00  0.00    -0.177 N 
ATOM     31  N   UNL     1       2.836  -1.916   2.925  1.00  0.00    -0.050 NA
ATOM     32  H   UNL     1       0.774  -1.729   2.588  1.00  0.00     0.216 HD
ENDBRANCH  23  27
ENDBRANCH   4  21
TORSDOF 4
