REMARK SMILES C/C1=C/C[C@@H](/C(C)=C/c2csc(C)n2)OC(=O)C[C@H](O)C(C)(C)C(=O)[C@H](C)[C@@H](O)[C@@H](C)CCC1
REMARK SMILES IDX 19 1 18 2 16 3 17 4 15 5 5 6 4 7 3 8 2 9 1 10 34 11 6 13
REMARK SMILES IDX 7 14 8 15 9 16 10 17 14 18 11 19 12 20 13 21 21 22 22 23
REMARK SMILES IDX 23 24 24 25 25 26 26 27 27 28 28 29 30 30 31 31 32 32 33 33
REMARK SMILES IDX 29 35 20 37
REMARK H PARENT 29 36 20 38
REMARK Flexibility Score: 50.00
ROOT
ATOM      1  C   UNL     1      -2.021   2.268  -1.540  1.00  0.00     0.138 C 
ENDROOT
BRANCH   1   2
ATOM      2  C   UNL     1      -0.859   1.240  -1.415  1.00  0.00     0.155 C 
BRANCH   2   3
ATOM      3  C   UNL     1       0.239   1.477  -2.433  1.00  0.00     0.309 C 
ATOM      4  O   UNL     1      -0.035   2.077  -3.507  1.00  0.00    -0.252 OA
BRANCH   3   5
ATOM      5  O   UNL     1       1.551   1.001  -2.271  1.00  0.00    -0.457 OA
BRANCH   5   6
ATOM      6  C   UNL     1       2.037   0.184  -1.201  1.00  0.00     0.206 C 
BRANCH   6   7
ATOM      7  C   UNL     1       1.499  -1.259  -1.336  1.00  0.00     0.077 C 
BRANCH   7   8
ATOM      8  C   UNL     1       2.139  -2.228  -0.364  1.00  0.00    -0.024 C 
ATOM      9  C   UNL     1       1.766  -2.402   0.925  1.00  0.00    -0.077 C 
ATOM     10  C   UNL     1       2.526  -3.397   1.762  1.00  0.00     0.039 C 
BRANCH   9  11
ATOM     11  C   UNL     1       0.615  -1.644   1.552  1.00  0.00     0.030 CG0
ATOM     12  G   UNL     1      -0.740  -2.304   1.245  1.00  0.00     0.000 G0
ENDBRANCH   9  11
ENDBRANCH   7   8
ENDBRANCH   6   7
BRANCH   6  13
ATOM     13  C   UNL     1       3.556   0.193  -1.243  1.00  0.00    -0.031 C 
ATOM     14  C   UNL     1       4.249  -0.151  -2.540  1.00  0.00     0.043 C 
ATOM     15  C   UNL     1       4.246   0.512  -0.127  1.00  0.00     0.032 C 
BRANCH  15  16
ATOM     16  C   UNL     1       5.717   0.544  -0.015  1.00  0.00     0.074 A 
ATOM     17  C   UNL     1       6.563  -0.483  -0.436  1.00  0.00     0.095 A 
ATOM     18  N   UNL     1       6.339   1.565   0.635  1.00  0.00    -0.242 NA
ATOM     19  S   UNL     1       8.135  -0.066  -0.007  1.00  0.00    -0.127 S 
ATOM     20  C   UNL     1       7.676   1.392   0.689  1.00  0.00     0.090 A 
ATOM     21  C   UNL     1       8.599   2.322   1.400  1.00  0.00     0.079 C 
ENDBRANCH  15  16
ENDBRANCH   6  13
ENDBRANCH   5   6
ENDBRANCH   3   5
ENDBRANCH   2   3
ENDBRANCH   1   2
BRANCH   1  22
ATOM     22  C   UNL     1      -3.258   2.048  -0.571  1.00  0.00     0.050 C 
ATOM     23  C   UNL     1      -4.317   3.114  -0.956  1.00  0.00     0.022 C 
ATOM     24  C   UNL     1      -2.842   2.295   0.896  1.00  0.00     0.022 C 
BRANCH  22  25
ATOM     25  C   UNL     1      -3.886   0.637  -0.770  1.00  0.00     0.146 C 
ATOM     26  O   UNL     1      -3.664   0.071  -1.832  1.00  0.00    -0.299 OA
BRANCH  25  27
ATOM     27  C   UNL     1      -4.914  -0.058   0.147  1.00  0.00     0.082 C 
ATOM     28  C   UNL     1      -6.132   0.834   0.437  1.00  0.00     0.019 C 
BRANCH  27  29
ATOM     29  C   UNL     1      -4.365  -0.719   1.460  1.00  0.00     0.127 C 
BRANCH  29  30
ATOM     30  C   UNL     1      -3.286  -1.846   1.296  1.00  0.00     0.015 C 
ATOM     31  C   UNL     1      -3.540  -2.778   0.097  1.00  0.00     0.010 C 
BRANCH  30  32
ATOM     32  C   UNL     1      -1.863  -1.257   1.295  1.00  0.00     0.006 C 
BRANCH  32  33
ATOM     33  C   UNL     1      -0.740  -2.304   1.245  1.00  0.00     0.005 CG0
ATOM     34  G   UNL     1       0.615  -1.644   1.552  1.00  0.00     0.000 G0
ENDBRANCH  32  33
ENDBRANCH  30  32
ENDBRANCH  29  30
BRANCH  29  35
ATOM     35  O   UNL     1      -5.433  -1.229   2.223  1.00  0.00    -0.392 OA
ATOM     36  H   UNL     1      -5.874  -1.940   1.689  1.00  0.00     0.210 HD
ENDBRANCH  29  35
ENDBRANCH  27  29
ENDBRANCH  25  27
ENDBRANCH  22  25
ENDBRANCH   1  22
BRANCH   1  37
ATOM     37  O   UNL     1      -1.520   3.584  -1.439  1.00  0.00    -0.392 OA
ATOM     38  H   UNL     1      -0.915   3.628  -0.654  1.00  0.00     0.211 HD
ENDBRANCH   1  37
TORSDOF 4
