REMARK SMILES c1cnc2cc3c(cc2n1)C1CNCC3C1
REMARK SMILES IDX 16 1 11 2 12 3 13 4 14 5 15 6 6 7 7 8 8 9 9 10 10 11 1 12
REMARK SMILES IDX 2 13 3 14 4 15 5 16
REMARK H PARENT 13 17
REMARK Flexibility Score: inf
ROOT
ATOM      1  C   UNL     1      -2.187   1.487  -0.142  1.00  0.00     0.019 C 
ATOM      2  C   UNL     1      -1.675   0.484  -1.180  1.00  0.00     0.034 C 
ATOM      3  C   UNL     1      -2.406  -0.854  -0.909  1.00  0.00     0.089 C 
ATOM      4  N   UNL     1      -2.131  -1.369   0.456  1.00  0.00    -0.316 NA
ATOM      5  C   UNL     1      -2.215  -0.342   1.524  1.00  0.00     0.089 C 
ATOM      6  C   UNL     1      -1.494   0.970   1.122  1.00  0.00     0.034 C 
ATOM      7  C   UNL     1      -0.139   0.648   0.580  1.00  0.00    -0.038 A 
ATOM      8  C   UNL     1      -0.244   0.364  -0.764  1.00  0.00    -0.038 A 
ATOM      9  C   UNL     1       0.854  -0.071  -1.507  1.00  0.00     0.035 A 
ATOM     10  C   UNL     1       2.091  -0.191  -0.852  1.00  0.00     0.089 A 
ATOM     11  N   UNL     1       3.195  -0.599  -1.532  1.00  0.00    -0.253 NA
ATOM     12  C   UNL     1       4.396  -0.728  -0.908  1.00  0.00     0.132 A 
ATOM     13  C   UNL     1       4.503  -0.441   0.456  1.00  0.00     0.132 A 
ATOM     14  N   UNL     1       3.405  -0.034   1.147  1.00  0.00    -0.253 NA
ATOM     15  C   UNL     1       2.200   0.101   0.534  1.00  0.00     0.089 A 
ATOM     16  C   UNL     1       1.071   0.513   1.262  1.00  0.00     0.035 A 
ATOM     17  H   UNL     1      -2.822  -2.126   0.670  1.00  0.00     0.122 HD
ENDROOT
TORSDOF 0
