REMARK SMILES CC(C)=CCC[C@]1(C)[C@@H](CC=C(C)C)C[C@]2(CC=C(C)C)C(=O)C(CC=C(C)C)=C(O)[C@@]1(C(=O)C(C)C)C2=O
REMARK SMILES IDX 32 1 30 2 24 3 22 4 23 5 16 6 15 7 9 8 7 9 8 10 38 11 39 12
REMARK SMILES IDX 33 13 34 14 35 15 36 16 37 17 31 18 6 20 5 21 4 22 2 23 1 24
REMARK SMILES IDX 3 25 25 26 26 27 27 28 28 29 29 30 10 31 11 32 12 33 13 34
REMARK SMILES IDX 14 35 17 36 18 37 19 38 20 39 21 40
REMARK H PARENT 31 19
REMARK Flexibility Score: inf
ROOT
ATOM      1  C   UNL     1       0.129   0.745  -1.133  1.00  0.00     0.151 C 
ATOM      2  C   UNL     1       0.897   1.573  -0.055  1.00  0.00     0.121 C 
ATOM      3  C   UNL     1       1.572   0.947   0.967  1.00  0.00     0.039 C 
ATOM      4  C   UNL     1       1.484  -0.540   1.110  1.00  0.00     0.176 C 
ATOM      5  O   UNL     1       1.746  -1.062   2.228  1.00  0.00    -0.293 OA
ATOM      6  C   UNL     1       1.000  -1.419  -0.032  1.00  0.00     0.097 C 
ATOM      7  C   UNL     1      -0.457  -1.917   0.255  1.00  0.00     0.028 C 
ATOM      8  C   UNL     1      -1.565  -1.242  -0.609  1.00  0.00     0.002 C 
ATOM      9  C   UNL     1      -1.384   0.338  -0.646  1.00  0.00    -0.002 C 
ATOM     10  C   UNL     1      -2.483   0.943  -1.577  1.00  0.00     0.014 C 
ATOM     11  C   UNL     1       0.988  -0.519  -1.244  1.00  0.00     0.168 C 
ATOM     12  O   UNL     1       1.784  -0.688  -2.161  1.00  0.00    -0.297 OA
ENDROOT
BRANCH   1  13
ATOM     13  C   UNL     1       0.122   1.440  -2.536  1.00  0.00     0.157 C 
ATOM     14  O   UNL     1       0.169   0.732  -3.535  1.00  0.00    -0.298 OA
BRANCH  13  15
ATOM     15  C   UNL     1      -0.059   2.937  -2.773  1.00  0.00     0.051 C 
ATOM     16  C   UNL     1      -1.007   3.223  -3.952  1.00  0.00     0.015 C 
ATOM     17  C   UNL     1       1.303   3.589  -3.049  1.00  0.00     0.015 C 
ENDBRANCH  13  15
ENDBRANCH   1  13
BRANCH   2  18
ATOM     18  O   UNL     1       0.790   2.964  -0.094  1.00  0.00    -0.510 OA
ATOM     19  H   UNL     1       1.133   3.618   0.595  1.00  0.00     0.293 HD
ENDBRANCH   2  18
BRANCH   9  20
ATOM     20  C   UNL     1      -1.688   0.921   0.798  1.00  0.00     0.013 C 
BRANCH  20  21
ATOM     21  C   UNL     1      -3.087   0.662   1.407  1.00  0.00     0.028 C 
BRANCH  21  22
ATOM     22  C   UNL     1      -3.287   1.493   2.651  1.00  0.00    -0.028 C 
ATOM     23  C   UNL     1      -3.688   2.783   2.652  1.00  0.00    -0.080 C 
ATOM     24  C   UNL     1      -4.033   3.519   1.377  1.00  0.00     0.039 C 
ATOM     25  C   UNL     1      -3.813   3.494   3.976  1.00  0.00     0.039 C 
ENDBRANCH  21  22
ENDBRANCH  20  21
ENDBRANCH   9  20
BRANCH   3  26
ATOM     26  C   UNL     1       2.397   1.678   2.016  1.00  0.00     0.070 C 
BRANCH  26  27
ATOM     27  C   UNL     1       3.830   1.201   1.999  1.00  0.00    -0.023 C 
ATOM     28  C   UNL     1       4.735   1.548   1.056  1.00  0.00    -0.080 C 
ATOM     29  C   UNL     1       6.135   1.003   1.161  1.00  0.00     0.039 C 
ATOM     30  C   UNL     1       4.379   2.471  -0.086  1.00  0.00     0.039 C 
ENDBRANCH  26  27
ENDBRANCH   3  26
BRANCH   8  31
ATOM     31  C   UNL     1      -1.676  -1.926  -2.012  1.00  0.00     0.031 C 
BRANCH  31  32
ATOM     32  C   UNL     1      -2.094  -3.376  -1.916  1.00  0.00    -0.028 C 
ATOM     33  C   UNL     1      -3.374  -3.802  -1.814  1.00  0.00    -0.080 C 
ATOM     34  C   UNL     1      -4.547  -2.848  -1.832  1.00  0.00     0.039 C 
ATOM     35  C   UNL     1      -3.627  -5.284  -1.703  1.00  0.00     0.039 C 
ENDBRANCH  31  32
ENDBRANCH   8  31
BRANCH   6  36
ATOM     36  C   UNL     1       1.978  -2.619  -0.262  1.00  0.00     0.050 C 
BRANCH  36  37
ATOM     37  C   UNL     1       2.079  -3.571   0.916  1.00  0.00    -0.027 C 
ATOM     38  C   UNL     1       3.179  -3.726   1.689  1.00  0.00    -0.080 C 
ATOM     39  C   UNL     1       4.458  -2.965   1.439  1.00  0.00     0.039 C 
ATOM     40  C   UNL     1       3.147  -4.683   2.854  1.00  0.00     0.039 C 
ENDBRANCH  36  37
ENDBRANCH   6  36
TORSDOF 12
