REMARK SMILES O=C(O[C@H]1CN2CCC1CC2)N1CCc2ccccc2[C@@H]1c1ccccc1
REMARK SMILES IDX 1 1 2 2 3 3 4 4 5 5 9 6 6 7 8 8 10 9 7 10 11 11 12 12 13 13
REMARK SMILES IDX 21 14 14 15 20 16 15 17 19 18 16 19 18 20 17 21 22 22 23 23
REMARK SMILES IDX 27 24 24 25 26 26 25 27
REMARK H PARENT
REMARK Flexibility Score: inf
ROOT
ATOM      1  O   UNL     1       1.593   1.997   1.168  1.00  0.00    -0.224 OA
ATOM      2  C   UNL     1       0.782   1.255   0.552  1.00  0.00     0.410 C 
ENDROOT
BRANCH   2   3
ATOM      3  O   UNL     1       1.212   0.031   0.022  1.00  0.00    -0.444 OA
BRANCH   3   4
ATOM      4  C   UNL     1       2.477  -0.565   0.309  1.00  0.00     0.195 C 
ATOM      5  C   UNL     1       2.460  -2.052  -0.145  1.00  0.00     0.130 C 
ATOM      6  C   UNL     1       3.629   0.166  -0.421  1.00  0.00     0.034 C 
ATOM      7  N   UNL     1       3.577  -2.344  -1.078  1.00  0.00    -0.300 NA
ATOM      8  C   UNL     1       4.948  -0.529  -0.031  1.00  0.00     0.023 C 
ATOM      9  C   UNL     1       3.437   0.002  -1.941  1.00  0.00     0.023 C 
ATOM     10  C   UNL     1       4.867  -2.029  -0.414  1.00  0.00     0.085 C 
ATOM     11  C   UNL     1       3.433  -1.507  -2.295  1.00  0.00     0.085 C 
ENDBRANCH   3   4
ENDBRANCH   2   3
BRANCH   2  12
ATOM     12  N   UNL     1      -0.601   1.645   0.409  1.00  0.00    -0.297 N 
ATOM     13  C   UNL     1      -0.985   3.042   0.662  1.00  0.00     0.129 C 
ATOM     14  C   UNL     1      -1.542   0.701  -0.236  1.00  0.00     0.150 C 
ATOM     15  C   UNL     1      -2.407   3.129   1.206  1.00  0.00     0.057 C 
ATOM     16  C   UNL     1      -2.941   1.260  -0.397  1.00  0.00    -0.018 A 
ATOM     17  C   UNL     1      -3.356   2.415   0.295  1.00  0.00    -0.041 A 
ATOM     18  C   UNL     1      -3.858   0.594  -1.232  1.00  0.00     0.006 A 
ATOM     19  C   UNL     1      -4.680   2.865   0.172  1.00  0.00     0.004 A 
ATOM     20  C   UNL     1      -5.166   1.059  -1.357  1.00  0.00     0.000 A 
ATOM     21  C   UNL     1      -5.580   2.188  -0.650  1.00  0.00     0.000 A 
BRANCH  14  22
ATOM     22  C   UNL     1      -1.607  -0.599   0.541  1.00  0.00    -0.021 A 
ATOM     23  C   UNL     1      -1.471  -1.828  -0.129  1.00  0.00     0.006 A 
ATOM     24  C   UNL     1      -1.805  -0.599   1.934  1.00  0.00     0.006 A 
ATOM     25  C   UNL     1      -1.500  -3.029   0.586  1.00  0.00     0.000 A 
ATOM     26  C   UNL     1      -1.835  -1.802   2.644  1.00  0.00     0.000 A 
ATOM     27  C   UNL     1      -1.678  -3.016   1.971  1.00  0.00     0.000 A 
ENDBRANCH  14  22
ENDBRANCH   2  12
TORSDOF 4
