REMARK SMILES NC(=O)c1ncn([C@@H]2O[C@H](COP(=O)(O)O)[C@@H](O)[C@H]2O)c1N
REMARK SMILES IDX 11 1 10 2 8 3 9 4 19 5 17 6 7 7 4 8 21 9 5 10 6 11 2 12 1 13
REMARK SMILES IDX 3 16 22 17 20 20 18 22 12 24 13 25 14 26 15 27 16 29
REMARK H PARENT 1 14 1 15 22 18 22 19 20 21 18 23 15 28 16 30
REMARK Flexibility Score: inf
ROOT
ATOM      1  C   UNL     1       2.793  -0.353   0.743  1.00  0.00     0.208 C 
ENDROOT
BRANCH   1   2
ATOM      2  C   UNL     1       1.665  -1.385   0.640  1.00  0.00     0.179 C 
ATOM      3  C   UNL     1      -0.560  -1.536   0.396  1.00  0.00     0.253 C 
ATOM      4  O   UNL     1       0.446  -0.824   1.075  1.00  0.00    -0.347 OA
ATOM      5  C   UNL     1      -0.043  -1.862  -0.999  1.00  0.00     0.195 C 
ATOM      6  C   UNL     1       1.467  -1.914  -0.795  1.00  0.00     0.179 C 
BRANCH   3   7
ATOM      7  N   UNL     1      -1.804  -0.760   0.346  1.00  0.00    -0.287 N 
ATOM      8  C   UNL     1      -3.357   0.809   0.090  1.00  0.00     0.169 A 
ATOM      9  C   UNL     1      -2.002   0.526  -0.016  1.00  0.00     0.138 A 
ATOM     10  N   UNL     1      -3.999  -0.300   0.512  1.00  0.00    -0.229 NA
ATOM     11  C   UNL     1      -3.030  -1.229   0.654  1.00  0.00     0.204 A 
BRANCH   8  12
ATOM     12  C   UNL     1      -4.062   2.072  -0.215  1.00  0.00     0.271 C 
ATOM     13  N   UNL     1      -5.463   2.192   0.035  1.00  0.00    -0.364 N 
ATOM     14  H   UNL     1      -5.961   3.083  -0.187  1.00  0.00     0.160 HD
ATOM     15  H   UNL     1      -6.010   1.402   0.444  1.00  0.00     0.160 HD
ATOM     16  O   UNL     1      -3.443   3.052  -0.707  1.00  0.00    -0.268 OA
ENDBRANCH   8  12
BRANCH   9  17
ATOM     17  N   UNL     1      -0.965   1.420  -0.434  1.00  0.00    -0.383 N 
ATOM     18  H   UNL     1       0.006   1.078  -0.586  1.00  0.00     0.158 HD
ATOM     19  H   UNL     1      -1.139   2.434  -0.592  1.00  0.00     0.158 HD
ENDBRANCH   9  17
ENDBRANCH   3   7
BRANCH   5  20
ATOM     20  O   UNL     1      -0.577  -3.079  -1.453  1.00  0.00    -0.386 OA
ATOM     21  H   UNL     1      -0.347  -3.144  -2.416  1.00  0.00     0.211 HD
ENDBRANCH   5  20
BRANCH   6  22
ATOM     22  O   UNL     1       2.000  -3.209  -0.948  1.00  0.00    -0.387 OA
ATOM     23  H   UNL     1       1.557  -3.806  -0.289  1.00  0.00     0.211 HD
ENDBRANCH   6  22
ENDBRANCH   1   2
BRANCH   1  24
ATOM     24  O   UNL     1       2.476   0.787  -0.021  1.00  0.00    -0.284 OA
BRANCH  24  25
ATOM     25  P   UNL     1       3.773   1.888   0.085  1.00  0.00     0.469 P 
ATOM     26  O   UNL     1       5.003   1.302  -0.573  1.00  0.00    -0.228 OA
BRANCH  25  27
ATOM     27  O   UNL     1       4.111   2.242   1.706  1.00  0.00    -0.303 OA
ATOM     28  H   UNL     1       4.824   2.929   1.672  1.00  0.00     0.223 HD
ENDBRANCH  25  27
BRANCH  25  29
ATOM     29  O   UNL     1       3.346   3.317  -0.713  1.00  0.00    -0.303 OA
ATOM     30  H   UNL     1       3.048   3.025  -1.611  1.00  0.00     0.223 HD
ENDBRANCH  25  29
ENDBRANCH  24  25
ENDBRANCH   1  24
TORSDOF 10
