REMARK SMILES CN1CCN(C(=O)OC2c3nccnc3C(=O)N2c2ccc(Cl)cn2)CC1
REMARK SMILES IDX 9 1 18 2 16 3 17 4 15 5 14 6 13 7 12 8 11 9 10 10 8 11 6 12
REMARK SMILES IDX 1 13 2 14 3 15 27 16 4 17 26 18 5 19 7 20 19 21 25 22 20 23
REMARK SMILES IDX 24 24 21 25 22 26 23 27
REMARK H PARENT
REMARK Flexibility Score: inf
ROOT
ATOM      1  C   UNL     1      -1.743  -0.673  -1.198  1.00  0.00     0.338 C 
ATOM      2  N   UNL     1      -2.570  -0.483   0.010  1.00  0.00    -0.248 N 
ATOM      3  C   UNL     1      -3.687   0.345  -0.329  1.00  0.00     0.283 C 
ATOM      4  O   UNL     1      -4.628   0.647   0.452  1.00  0.00    -0.267 OA
ATOM      5  C   UNL     1      -3.602   0.702  -1.716  1.00  0.00     0.156 A 
ATOM      6  N   UNL     1      -4.438   1.452  -2.474  1.00  0.00    -0.247 NA
ATOM      7  C   UNL     1      -4.138   1.627  -3.795  1.00  0.00     0.132 A 
ATOM      8  C   UNL     1      -2.982   1.025  -4.341  1.00  0.00     0.131 A 
ATOM      9  N   UNL     1      -2.167   0.269  -3.547  1.00  0.00    -0.251 NA
ATOM     10  C   UNL     1      -2.485   0.112  -2.238  1.00  0.00     0.134 A 
ENDROOT
BRANCH   1  11
ATOM     11  O   UNL     1      -0.452  -0.097  -1.008  1.00  0.00    -0.419 OA
BRANCH  11  12
ATOM     12  C   UNL     1       0.642  -0.791  -0.478  1.00  0.00     0.412 C 
ATOM     13  C   UNL     1       5.080   1.480  -0.364  1.00  0.00     0.105 C 
ATOM     14  N   UNL     1       4.144   1.371   0.769  1.00  0.00    -0.303 NA
ATOM     15  C   UNL     1       3.928  -0.026   1.195  1.00  0.00     0.106 C 
ATOM     16  C   UNL     1       2.869   2.070   0.523  1.00  0.00     0.106 C 
ATOM     17  C   UNL     1       3.068  -0.822   0.204  1.00  0.00     0.138 C 
ATOM     18  C   UNL     1       1.976   1.339  -0.489  1.00  0.00     0.138 C 
ATOM     19  N   UNL     1       1.849  -0.080  -0.139  1.00  0.00    -0.306 N 
ATOM     20  O   UNL     1       0.575  -2.040  -0.312  1.00  0.00    -0.224 OA
ENDBRANCH  11  12
ENDBRANCH   1  11
BRANCH   2  21
ATOM     21  C   UNL     1      -2.370  -1.163   1.260  1.00  0.00     0.138 A 
ATOM     22  N   UNL     1      -1.817  -2.408   1.269  1.00  0.00    -0.237 NA
ATOM     23  C   UNL     1      -2.713  -0.554   2.477  1.00  0.00     0.049 A 
ATOM     24  C   UNL     1      -1.593  -3.091   2.423  1.00  0.00     0.134 A 
ATOM     25  C   UNL     1      -2.491  -1.238   3.674  1.00  0.00     0.026 A 
ATOM     26  C   UNL     1      -1.929  -2.516   3.651  1.00  0.00     0.059 A 
ATOM     27  Cl  UNL     1      -1.640  -3.386   5.146  1.00  0.00    -0.083 Cl
ENDBRANCH   2  21
TORSDOF 3
