REMARK SMILES CC(C)OC(=O)C(C)(C)Oc1ccc(C(=O)c2ccc(Cl)cc2)cc1
REMARK SMILES IDX 7 1 8 2 9 3 5 4 6 5 4 6 2 7 1 8 3 9 10 10 11 11 12 12 25 13
REMARK SMILES IDX 13 14 24 15 14 16 15 17 16 18 17 19 18 20 23 21 19 22 22 23
REMARK SMILES IDX 20 24 21 25
REMARK H PARENT
REMARK Flexibility Score: inf
ROOT
ATOM      1  C   UNL     1      -2.216   0.016  -0.265  1.00  0.00     0.200 C 
ATOM      2  C   UNL     1      -2.021  -1.250   0.588  1.00  0.00     0.069 C 
ATOM      3  C   UNL     1      -2.318  -0.358  -1.755  1.00  0.00     0.069 C 
ENDROOT
BRANCH   1   4
ATOM      4  C   UNL     1      -3.498   0.691   0.155  1.00  0.00     0.350 C 
ATOM      5  O   UNL     1      -3.478   1.877   0.589  1.00  0.00    -0.247 OA
BRANCH   4   6
ATOM      6  O   UNL     1      -4.710  -0.004   0.052  1.00  0.00    -0.460 OA
BRANCH   6   7
ATOM      7  C   UNL     1      -5.963   0.524   0.486  1.00  0.00     0.170 C 
ATOM      8  C   UNL     1      -7.088  -0.295  -0.143  1.00  0.00     0.052 C 
ATOM      9  C   UNL     1      -6.055   0.477   2.014  1.00  0.00     0.052 C 
ENDBRANCH   6   7
ENDBRANCH   4   6
ENDBRANCH   1   4
BRANCH   1  10
ATOM     10  O   UNL     1      -1.126   0.928  -0.056  1.00  0.00    -0.476 OA
BRANCH  10  11
ATOM     11  C   UNL     1       0.212   0.632  -0.336  1.00  0.00     0.121 A 
ATOM     12  C   UNL     1       1.031   0.074   0.652  1.00  0.00     0.047 A 
ATOM     13  C   UNL     1       0.747   0.923  -1.596  1.00  0.00     0.047 A 
ATOM     14  C   UNL     1       2.371  -0.212   0.377  1.00  0.00     0.016 A 
ATOM     15  C   UNL     1       2.087   0.639  -1.874  1.00  0.00     0.016 A 
ATOM     16  C   UNL     1       2.917   0.078  -0.887  1.00  0.00     0.023 A 
BRANCH  16  17
ATOM     17  C   UNL     1       4.332  -0.237  -1.199  1.00  0.00     0.193 C 
ATOM     18  O   UNL     1       4.633  -0.579  -2.375  1.00  0.00    -0.289 OA
BRANCH  17  19
ATOM     19  C   UNL     1       5.405  -0.165  -0.179  1.00  0.00     0.023 A 
ATOM     20  C   UNL     1       5.364   0.795   0.850  1.00  0.00     0.014 A 
ATOM     21  C   UNL     1       6.508  -1.034  -0.256  1.00  0.00     0.014 A 
ATOM     22  C   UNL     1       6.392   0.863   1.795  1.00  0.00     0.021 A 
ATOM     23  C   UNL     1       7.534  -0.962   0.691  1.00  0.00     0.021 A 
ATOM     24  C   UNL     1       7.476  -0.016   1.719  1.00  0.00     0.041 A 
ATOM     25  Cl  UNL     1       8.765   0.072   2.906  1.00  0.00    -0.084 Cl
ENDBRANCH  17  19
ENDBRANCH  16  17
ENDBRANCH  10  11
ENDBRANCH   1  10
TORSDOF 7
