REMARK SMILES CCOC(=O)C1=C(C)NC(C)=C(C(=O)OC)C1c1cccc([N+](=O)[O-])c1
REMARK SMILES IDX 6 1 7 2 8 3 9 4 10 5 11 6 12 7 17 8 4 10 5 11 3 12 2 13 1 14
REMARK SMILES IDX 18 15 26 16 19 17 22 18 20 19 21 20 23 21 25 22 24 23 13 24
REMARK SMILES IDX 14 25 15 26 16 27
REMARK H PARENT 9 9
REMARK Flexibility Score: inf
ROOT
ATOM      1  C   UNL     1       1.251  -0.255   0.915  1.00  0.00     0.068 C 
ATOM      2  C   UNL     1       1.664  -1.472   1.347  1.00  0.00     0.023 C 
ATOM      3  C   UNL     1       3.077  -1.743   1.796  1.00  0.00     0.065 C 
ATOM      4  N   UNL     1       0.727  -2.556   1.407  1.00  0.00    -0.362 N 
ATOM      5  C   UNL     1      -0.687  -2.360   1.271  1.00  0.00     0.023 C 
ATOM      6  C   UNL     1      -1.593  -3.505   1.647  1.00  0.00     0.065 C 
ATOM      7  C   UNL     1      -1.157  -1.170   0.835  1.00  0.00     0.068 C 
ATOM      8  C   UNL     1      -0.188  -0.056   0.460  1.00  0.00     0.098 C 
ATOM      9  H   UNL     1       1.079  -3.512   1.642  1.00  0.00     0.166 HD
ENDROOT
BRANCH   1  10
ATOM     10  C   UNL     1       2.156   0.926   0.797  1.00  0.00     0.336 C 
ATOM     11  O   UNL     1       3.407   0.787   0.717  1.00  0.00    -0.246 OA
BRANCH  10  12
ATOM     12  O   UNL     1       1.594   2.206   0.716  1.00  0.00    -0.463 OA
BRANCH  12  13
ATOM     13  C   UNL     1       2.364   3.401   0.600  1.00  0.00     0.230 C 
ATOM     14  C   UNL     1       2.988   3.770   1.941  1.00  0.00     0.049 C 
ENDBRANCH  12  13
ENDBRANCH  10  12
ENDBRANCH   1  10
BRANCH   8  15
ATOM     15  C   UNL     1      -0.221   0.163  -1.040  1.00  0.00    -0.029 A 
ATOM     16  C   UNL     1      -0.652   1.393  -1.569  1.00  0.00     0.090 A 
ATOM     17  C   UNL     1       0.184  -0.856  -1.920  1.00  0.00     0.005 A 
ATOM     18  C   UNL     1      -0.680   1.609  -2.958  1.00  0.00     0.269 A 
ATOM     19  C   UNL     1       0.157  -0.649  -3.299  1.00  0.00     0.007 A 
ATOM     20  C   UNL     1      -0.271   0.574  -3.818  1.00  0.00     0.085 A 
BRANCH  18  21
ATOM     21  N   UNL     1      -1.120   2.873  -3.489  1.00  0.00     0.062 N 
ATOM     22  O   UNL     1      -1.513   3.888  -2.646  1.00  0.00    -0.258 OA
ATOM     23  O   UNL     1      -1.151   3.070  -4.721  1.00  0.00    -0.258 OA
ENDBRANCH  18  21
ENDBRANCH   8  15
BRANCH   7  24
ATOM     24  C   UNL     1      -2.608  -0.900   0.634  1.00  0.00     0.336 C 
ATOM     25  O   UNL     1      -3.035   0.285   0.720  1.00  0.00    -0.246 OA
BRANCH  24  26
ATOM     26  O   UNL     1      -3.490  -1.931   0.298  1.00  0.00    -0.466 OA
ATOM     27  C   UNL     1      -4.877  -1.714   0.072  1.00  0.00     0.282 C 
ENDBRANCH  24  26
ENDBRANCH   7  24
TORSDOF 7
