REMARK SMILES C=CC(N)CCC(=O)O
REMARK SMILES IDX 5 1 3 2 4 3 2 6 1 7 6 8 7 9 8 10 9 11
REMARK H PARENT 4 4 4 5 9 12
REMARK Flexibility Score: inf
ROOT
ATOM      1  C   UNL     1      -0.421   0.315  -0.770  1.00  0.00     0.034 C 
ENDROOT
BRANCH   1   2
ATOM      2  C   UNL     1       1.110   0.178  -0.584  1.00  0.00     0.073 C 
BRANCH   2   3
ATOM      3  N   UNL     1       1.572  -1.199  -0.783  1.00  0.00    -0.324 NA
ATOM      4  H   UNL     1       1.180  -1.567  -1.680  1.00  0.00     0.119 HD
ATOM      5  H   UNL     1       1.229  -1.808  -0.005  1.00  0.00     0.119 HD
ENDBRANCH   2   3
BRANCH   2   6
ATOM      6  C   UNL     1       1.568   0.701   0.759  1.00  0.00    -0.016 C 
ATOM      7  C   UNL     1       2.866   0.779   1.067  1.00  0.00     0.005 C 
ENDBRANCH   2   6
ENDBRANCH   1   2
BRANCH   1   8
ATOM      8  C   UNL     1      -1.251  -0.609   0.135  1.00  0.00     0.124 C 
BRANCH   8   9
ATOM      9  C   UNL     1      -2.708  -0.294   0.005  1.00  0.00     0.303 C 
ATOM     10  O   UNL     1      -3.401  -0.862  -0.881  1.00  0.00    -0.252 OA
BRANCH   9  11
ATOM     11  O   UNL     1      -3.286   0.662   0.835  1.00  0.00    -0.481 OA
ATOM     12  H   UNL     1      -4.267   0.899   0.748  1.00  0.00     0.296 HD
ENDBRANCH   9  11
ENDBRANCH   8   9
ENDBRANCH   1   8
TORSDOF 6
