REMARK SMILES CCCC1O[C@@H]2C[C@H]3[C@@H]4CCC5=CC(=O)C=C[C@]5(C)[C@H]4[C@@H](O)C[C@]3(C)[C@]2(C(=O)CO)O1
REMARK SMILES IDX 8 1 7 2 6 3 5 4 4 5 31 6 26 7 24 8 25 9 23 10 21 11 20 12
REMARK SMILES IDX 9 13 10 14 11 15 12 16 13 17 14 18 15 19 16 20 17 21 18 22
REMARK SMILES IDX 19 23 27 24 28 25 29 26 30 27 22 29 3 31 2 32 1 33
REMARK H PARENT 30 28 22 30
REMARK Flexibility Score: inf
ROOT
ATOM      1  C   UNL     1      -0.264   0.601  -0.846  1.00  0.00     0.005 C 
ATOM      2  C   UNL     1       0.362   1.449  -1.944  1.00  0.00     0.040 C 
ATOM      3  C   UNL     1       1.857   1.058  -1.909  1.00  0.00     0.162 C 
ATOM      4  O   UNL     1       2.607   2.069  -1.313  1.00  0.00    -0.346 OA
ATOM      5  C   UNL     1       2.912   1.624  -0.012  1.00  0.00     0.251 C 
ATOM      6  O   UNL     1       2.433   0.317   0.220  1.00  0.00    -0.335 OA
ATOM      7  C   UNL     1       1.983  -0.177  -1.011  1.00  0.00     0.163 C 
ATOM      8  C   UNL     1       0.522  -0.715  -0.890  1.00  0.00     0.012 C 
ATOM      9  C   UNL     1       0.188  -1.590  -2.146  1.00  0.00     0.015 C 
ATOM     10  C   UNL     1       0.206  -1.499   0.410  1.00  0.00     0.042 C 
ATOM     11  C   UNL     1      -1.319  -1.732   0.614  1.00  0.00     0.119 C 
ATOM     12  C   UNL     1      -2.166  -0.415   0.467  1.00  0.00     0.035 C 
ATOM     13  C   UNL     1      -1.797   0.405  -0.822  1.00  0.00    -0.000 C 
ATOM     14  C   UNL     1      -2.504   1.778  -0.815  1.00  0.00     0.009 C 
ATOM     15  C   UNL     1      -4.019   1.630  -0.694  1.00  0.00     0.032 C 
ATOM     16  C   UNL     1      -4.351   0.820   0.533  1.00  0.00    -0.056 C 
ATOM     17  C   UNL     1      -5.170   1.337   1.463  1.00  0.00     0.052 C 
ATOM     18  C   UNL     1      -5.458   0.609   2.698  1.00  0.00     0.178 C 
ATOM     19  O   UNL     1      -6.240   1.098   3.555  1.00  0.00    -0.290 OA
ATOM     20  C   UNL     1      -4.817  -0.680   2.940  1.00  0.00     0.048 C 
ATOM     21  C   UNL     1      -4.006  -1.216   2.027  1.00  0.00    -0.012 C 
ATOM     22  C   UNL     1      -3.725  -0.578   0.664  1.00  0.00     0.013 C 
ATOM     23  C   UNL     1      -4.388  -1.489  -0.397  1.00  0.00     0.021 C 
ENDROOT
BRANCH   7  24
ATOM     24  C   UNL     1       2.988  -1.216  -1.508  1.00  0.00     0.193 C 
ATOM     25  O   UNL     1       3.302  -1.261  -2.689  1.00  0.00    -0.294 OA
BRANCH  24  26
ATOM     26  C   UNL     1       3.556  -2.252  -0.575  1.00  0.00     0.234 C 
BRANCH  26  27
ATOM     27  O   UNL     1       4.956  -2.188  -0.578  1.00  0.00    -0.388 OA
ATOM     28  H   UNL     1       5.207  -1.437   0.020  1.00  0.00     0.211 HD
ENDBRANCH  26  27
ENDBRANCH  24  26
ENDBRANCH   7  24
BRANCH  11  29
ATOM     29  O   UNL     1      -1.776  -2.731  -0.257  1.00  0.00    -0.393 OA
ATOM     30  H   UNL     1      -1.435  -3.597   0.087  1.00  0.00     0.210 HD
ENDBRANCH  11  29
BRANCH   5  31
ATOM     31  C   UNL     1       4.429   1.677   0.201  1.00  0.00     0.062 C 
BRANCH  31  32
ATOM     32  C   UNL     1       4.815   1.294   1.636  1.00  0.00     0.002 C 
ATOM     33  C   UNL     1       6.327   1.346   1.830  1.00  0.00     0.004 C 
ENDBRANCH  31  32
ENDBRANCH   5  31
TORSDOF 6
