REMARK SMILES CN1C(=O)CN=C(c2ccccc2F)c2cc([N+](=O)[O-])ccc21
REMARK SMILES IDX 23 1 15 2 16 3 17 4 21 5 22 6 2 7 1 8 3 9 4 10 7 12 6 13
REMARK SMILES IDX 8 14 9 15 13 16 10 17 12 18 14 19 11 20 5 21 18 23 20 24
REMARK SMILES IDX 19 25
REMARK H PARENT
REMARK Flexibility Score: 90.00
ROOT
ATOM      1  C   UNL     1      -1.785  -0.079  -0.092  1.00  0.00     0.053 A 
ATOM      2  C   UNL     1      -0.432   0.236  -0.377  1.00  0.00     0.031 A 
ATOM      3  C   UNL     1      -0.091   1.555  -0.729  1.00  0.00     0.098 A 
ATOM      4  C   UNL     1      -1.064   2.565  -0.796  1.00  0.00     0.270 A 
ATOM      5  C   UNL     1      -2.398   2.241  -0.509  1.00  0.00     0.088 A 
ATOM      6  C   UNL     1      -2.752   0.937  -0.162  1.00  0.00     0.034 A 
ENDROOT
BRANCH   1   7
ATOM      7  N   UNL     1      -2.187  -1.416   0.281  1.00  0.00    -0.313 N 
ATOM      8  C   UNL     1      -3.140  -1.608   1.378  1.00  0.00     0.153 C 
BRANCH   7   9
ATOM      9  C   UNL     1      -1.811  -2.545  -0.530  1.00  0.00     0.248 CG0
ATOM     10  O   UNL     1      -2.412  -3.647  -0.404  1.00  0.00    -0.272 OA
ATOM     11  G   UNL     1      -0.695  -2.433  -1.520  1.00  0.00     0.000 G0
ENDBRANCH   7   9
ENDBRANCH   1   7
BRANCH   2  12
ATOM     12  C   UNL     1       0.652  -0.787  -0.304  1.00  0.00     0.078 C 
ATOM     13  N   UNL     1       0.506  -1.967  -0.837  1.00  0.00    -0.274 NA
BRANCH  12  14
ATOM     14  C   UNL     1       1.939  -0.464   0.367  1.00  0.00     0.036 A 
ATOM     15  C   UNL     1       1.954   0.379   1.495  1.00  0.00     0.013 A 
ATOM     16  C   UNL     1       3.158  -1.004  -0.095  1.00  0.00     0.132 A 
ATOM     17  C   UNL     1       3.157   0.681   2.140  1.00  0.00     0.001 A 
ATOM     18  C   UNL     1       4.357  -0.696   0.555  1.00  0.00     0.040 A 
ATOM     19  F   UNL     1       3.196  -1.806  -1.190  1.00  0.00    -0.206 F 
ATOM     20  C   UNL     1       4.357   0.145   1.670  1.00  0.00     0.003 A 
ENDBRANCH  12  14
BRANCH  13  21
ATOM     21  C   UNL     1      -0.695  -2.433  -1.520  1.00  0.00     0.243 CG0
ATOM     22  G   UNL     1      -1.811  -2.545  -0.530  1.00  0.00     0.000 G0
ENDBRANCH  13  21
ENDBRANCH   2  12
BRANCH   4  23
ATOM     23  N   UNL     1      -0.696   3.909  -1.155  1.00  0.00     0.062 N 
ATOM     24  O   UNL     1       0.615   4.226  -1.430  1.00  0.00    -0.258 OA
ATOM     25  O   UNL     1      -1.558   4.810  -1.221  1.00  0.00    -0.258 OA
ENDBRANCH   4  23
TORSDOF 2
