REMARK SMILES CCCCCNC(=N)N/N=C/c1c[nH]c2ccc(OC)cc12
REMARK SMILES IDX 6 1 7 2 8 3 9 4 5 8 4 9 3 10 2 11 1 12 10 13 11 14 12 15
REMARK SMILES IDX 13 16 22 17 14 18 15 19 21 20 16 22 18 23 17 24 19 25 20 26
REMARK H PARENT 6 5 8 6 9 7 14 21
REMARK Flexibility Score: inf
ROOT
ATOM      1  N   UNL     1       3.064  -0.331  -0.927  1.00  0.00    -0.355 N 
ATOM      2  C   UNL     1       1.930   0.259  -0.273  1.00  0.00     0.209 C 
ATOM      3  N   UNL     1       2.106   1.184   0.621  1.00  0.00    -0.268 NA
ATOM      4  N   UNL     1       0.610  -0.178  -0.625  1.00  0.00    -0.248 N 
ATOM      5  H   UNL     1       2.896  -1.014  -1.700  1.00  0.00     0.163 HD
ATOM      6  H   UNL     1       1.316   1.646   1.122  1.00  0.00     0.191 HD
ATOM      7  H   UNL     1       0.504  -0.924  -1.351  1.00  0.00     0.193 HD
ENDROOT
BRANCH   1   8
ATOM      8  C   UNL     1       4.446   0.031  -0.615  1.00  0.00     0.116 C 
BRANCH   8   9
ATOM      9  C   UNL     1       4.890  -0.631   0.695  1.00  0.00     0.021 C 
BRANCH   9  10
ATOM     10  C   UNL     1       6.267  -0.144   1.176  1.00  0.00     0.002 C 
BRANCH  10  11
ATOM     11  C   UNL     1       7.431  -0.573   0.257  1.00  0.00    -0.003 C 
ATOM     12  C   UNL     1       7.911   0.566  -0.643  1.00  0.00     0.004 C 
ENDBRANCH  10  11
ENDBRANCH   9  10
ENDBRANCH   8   9
ENDBRANCH   1   8
BRANCH   4  13
ATOM     13  N   UNL     1      -0.528   0.373  -0.014  1.00  0.00    -0.181 NA
ATOM     14  C   UNL     1      -1.725  -0.015  -0.322  1.00  0.00     0.143 C 
BRANCH  14  15
ATOM     15  C   UNL     1      -2.892   0.585   0.339  1.00  0.00     0.020 A 
ATOM     16  C   UNL     1      -2.884   1.578   1.315  1.00  0.00     0.093 A 
ATOM     17  C   UNL     1      -4.223   0.283   0.123  1.00  0.00     0.012 A 
ATOM     18  N   UNL     1      -4.148   1.880   1.690  1.00  0.00    -0.361 N 
ATOM     19  C   UNL     1      -4.952   1.087   0.959  1.00  0.00     0.046 A 
ATOM     20  C   UNL     1      -4.835  -0.629  -0.737  1.00  0.00     0.057 A 
ATOM     21  H   UNL     1      -4.437   2.586   2.402  1.00  0.00     0.166 HD
ATOM     22  C   UNL     1      -6.343   1.036   0.994  1.00  0.00     0.030 A 
ATOM     23  C   UNL     1      -6.242  -0.712  -0.732  1.00  0.00     0.119 A 
ATOM     24  C   UNL     1      -6.992   0.127   0.139  1.00  0.00     0.048 A 
BRANCH  23  25
ATOM     25  O   UNL     1      -6.854  -1.630  -1.597  1.00  0.00    -0.497 OA
ATOM     26  C   UNL     1      -8.261  -1.822  -1.700  1.00  0.00     0.278 C 
ENDBRANCH  23  25
ENDBRANCH  14  15
ENDBRANCH   4  13
TORSDOF 7
