REMARK SMILES O=C(NCCN1CCOCC1)c1ccc(Cl)cc1
REMARK SMILES IDX 4 1 3 2 2 3 1 4 12 6 16 7 15 8 14 9 17 10 13 11 18 12 5 13
REMARK SMILES IDX 6 14 7 15 11 16 8 17 10 18 9 19
REMARK H PARENT 3 5
REMARK Flexibility Score: inf
ROOT
ATOM      1  C   UNL     1      -0.271  -0.504  -1.217  1.00  0.00     0.131 C 
ENDROOT
BRANCH   1   2
ATOM      2  N   UNL     1       1.155  -0.260  -1.005  1.00  0.00    -0.351 N 
ATOM      3  C   UNL     1       1.680   1.049  -0.729  1.00  0.00     0.251 C 
ATOM      4  O   UNL     1       0.929   2.057  -0.841  1.00  0.00    -0.269 OA
ATOM      5  H   UNL     1       1.813  -1.057  -1.160  1.00  0.00     0.163 HD
BRANCH   3   6
ATOM      6  C   UNL     1       3.096   1.239  -0.332  1.00  0.00     0.039 A 
ATOM      7  Cl  UNL     1       7.447   1.874   0.905  1.00  0.00    -0.084 Cl
ATOM      8  C   UNL     1       5.776   1.631   0.432  1.00  0.00     0.041 A 
ATOM      9  C   UNL     1       5.161   0.393   0.642  1.00  0.00     0.021 A 
ATOM     10  C   UNL     1       5.054   2.676  -0.151  1.00  0.00     0.021 A 
ATOM     11  C   UNL     1       3.829   0.197   0.267  1.00  0.00     0.015 A 
ATOM     12  C   UNL     1       3.722   2.484  -0.528  1.00  0.00     0.015 A 
ENDBRANCH   3   6
ENDBRANCH   1   2
BRANCH   1  13
ATOM     13  C   UNL     1      -1.027  -0.458   0.117  1.00  0.00     0.106 C 
BRANCH  13  14
ATOM     14  N   UNL     1      -2.489  -0.525  -0.094  1.00  0.00    -0.297 NA
ATOM     15  C   UNL     1      -3.200  -0.114   1.131  1.00  0.00     0.113 C 
ATOM     16  C   UNL     1      -2.920  -1.882  -0.501  1.00  0.00     0.113 C 
ATOM     17  C   UNL     1      -4.726  -0.130   0.894  1.00  0.00     0.175 C 
ATOM     18  C   UNL     1      -4.445  -2.054  -0.358  1.00  0.00     0.175 C 
ATOM     19  O   UNL     1      -5.085  -0.796  -0.304  1.00  0.00    -0.379 OA
ENDBRANCH  13  14
ENDBRANCH   1  13
TORSDOF 4
