REMARK SMILES CN1CC[C@]23c4c5ccc(O)c4O[C@H]2[C@@H](O)CC[C@H]3[C@H]1C5
REMARK SMILES IDX 14 1 13 2 12 3 10 4 9 5 8 6 7 7 6 8 5 9 4 10 3 11 2 12 1 13
REMARK SMILES IDX 20 14 21 15 19 16 18 17 17 18 15 19 16 20 11 22
REMARK H PARENT 16 21 11 23
REMARK Flexibility Score: inf
ROOT
ATOM      1  C   UNL     1       1.403  -0.897  -1.474  1.00  0.00     0.213 C 
ATOM      2  O   UNL     1       2.380   0.157  -1.402  1.00  0.00    -0.483 OA
ATOM      3  C   UNL     1       2.003   1.055  -0.418  1.00  0.00     0.165 A 
ATOM      4  C   UNL     1       2.793   2.008   0.223  1.00  0.00     0.158 A 
ATOM      5  C   UNL     1       2.257   2.654   1.359  1.00  0.00     0.050 A 
ATOM      6  C   UNL     1       0.983   2.291   1.852  1.00  0.00     0.008 A 
ATOM      7  C   UNL     1       0.207   1.336   1.165  1.00  0.00    -0.039 A 
ATOM      8  C   UNL     1       0.729   0.805  -0.011  1.00  0.00     0.012 A 
ATOM      9  C   UNL     1       0.105  -0.235  -0.878  1.00  0.00     0.044 C 
ATOM     10  C   UNL     1      -0.736   0.474  -1.987  1.00  0.00     0.032 C 
ATOM     11  C   UNL     1      -2.244   0.574  -1.651  1.00  0.00     0.085 C 
ATOM     12  N   UNL     1      -2.489   0.802  -0.209  1.00  0.00    -0.303 NA
ATOM     13  C   UNL     1      -3.933   0.875   0.060  1.00  0.00     0.105 C 
ATOM     14  C   UNL     1      -1.805  -0.148   0.722  1.00  0.00     0.064 C 
ATOM     15  C   UNL     1      -1.039   0.721   1.759  1.00  0.00     0.055 C 
ATOM     16  C   UNL     1      -0.839  -1.119  -0.040  1.00  0.00     0.021 C 
ATOM     17  C   UNL     1      -0.087  -2.116   0.848  1.00  0.00     0.009 C 
ATOM     18  C   UNL     1       0.822  -2.973  -0.037  1.00  0.00     0.036 C 
ATOM     19  C   UNL     1       1.938  -2.123  -0.666  1.00  0.00     0.156 C 
ENDROOT
BRANCH  19  20
ATOM     20  O   UNL     1       2.822  -1.699   0.344  1.00  0.00    -0.389 OA
ATOM     21  H   UNL     1       3.380  -2.483   0.591  1.00  0.00     0.211 HD
ENDBRANCH  19  20
BRANCH   4  22
ATOM     22  O   UNL     1       4.081   2.278  -0.228  1.00  0.00    -0.504 OA
ATOM     23  H   UNL     1       4.670   2.959   0.237  1.00  0.00     0.293 HD
ENDBRANCH   4  22
TORSDOF 2
