REMARK SMILES C[C@@H]1C[C@H]2[C@@H]3C[C@H](F)C4=CC(=O)C=C[C@]4(C)[C@H]3[C@@H](O)C[C@]2(C)[C@@]1(O)C(=O)CO
REMARK SMILES IDX 25 1 26 2 23 3 4 4 3 5 21 6 5 7 2 8 22 9 20 10 17 11 6 12
REMARK SMILES IDX 1 13 18 14 15 15 7 16 9 17 14 18 16 19 8 20 10 21 13 22
REMARK SMILES IDX 11 23 12 24 24 25 19 27 27 29 28 30
REMARK H PARENT 24 26 19 28 28 31
REMARK Flexibility Score: inf
ROOT
ATOM      1  C   UNL     1       3.704   0.571  -1.705  1.00  0.00     0.190 C 
ATOM      2  O   UNL     1       4.634   0.779  -0.935  1.00  0.00    -0.294 OA
ENDROOT
BRANCH   1   3
ATOM      3  C   UNL     1       2.578  -0.402  -1.315  1.00  0.00     0.133 C 
ATOM      4  C   UNL     1       0.734  -0.994   0.072  1.00  0.00     0.002 C 
ATOM      5  C   UNL     1       1.877  -1.806   0.654  1.00  0.00     0.011 C 
ATOM      6  C   UNL     1       1.392   0.266  -0.534  1.00  0.00     0.009 C 
ATOM      7  C   UNL     1      -0.479  -0.605   0.931  1.00  0.00     0.003 C 
ATOM      8  C   UNL     1       3.069  -1.501  -0.291  1.00  0.00     0.026 C 
ATOM      9  C   UNL     1       1.955   1.247   0.558  1.00  0.00     0.015 C 
ATOM     10  C   UNL     1       0.339   1.060  -1.380  1.00  0.00     0.042 C 
ATOM     11  C   UNL     1      -1.632  -0.166  -0.021  1.00  0.00     0.035 C 
ATOM     12  C   UNL     1      -0.989  -1.694   1.873  1.00  0.00     0.046 C 
ATOM     13  C   UNL     1       3.637  -2.772  -0.946  1.00  0.00     0.011 C 
ATOM     14  C   UNL     1      -1.114   0.490  -1.378  1.00  0.00     0.119 C 
ATOM     15  C   UNL     1      -2.770   0.550   0.796  1.00  0.00     0.016 C 
ATOM     16  C   UNL     1      -2.043  -1.094   2.811  1.00  0.00     0.194 C 
ATOM     17  C   UNL     1      -3.086  -0.243   2.094  1.00  0.00    -0.022 C 
ATOM     18  C   UNL     1      -4.059   0.647  -0.027  1.00  0.00    -0.012 C 
ATOM     19  C   UNL     1      -2.344   1.986   1.203  1.00  0.00     0.021 C 
ATOM     20  F   UNL     1      -2.648  -2.137   3.502  1.00  0.00    -0.243 F 
ATOM     21  C   UNL     1      -4.256  -0.020   2.722  1.00  0.00     0.055 C 
ATOM     22  C   UNL     1      -5.242   0.842   0.570  1.00  0.00     0.048 C 
ATOM     23  C   UNL     1      -5.339   0.684   2.025  1.00  0.00     0.178 C 
ATOM     24  O   UNL     1      -6.322   1.124   2.665  1.00  0.00    -0.290 OA
BRANCH   3  25
ATOM     25  O   UNL     1       2.052  -1.022  -2.475  1.00  0.00    -0.381 OA
ATOM     26  H   UNL     1       2.806  -1.328  -3.044  1.00  0.00     0.212 HD
ENDBRANCH   3  25
BRANCH  14  27
ATOM     27  O   UNL     1      -1.998   1.464  -1.861  1.00  0.00    -0.393 OA
ATOM     28  H   UNL     1      -1.805   1.592  -2.827  1.00  0.00     0.210 HD
ENDBRANCH  14  27
ENDBRANCH   1   3
BRANCH   1  29
ATOM     29  C   UNL     1       3.715   1.279  -3.042  1.00  0.00     0.234 C 
BRANCH  29  30
ATOM     30  O   UNL     1       4.300   2.551  -2.909  1.00  0.00    -0.388 OA
ATOM     31  H   UNL     1       3.607   3.231  -3.123  1.00  0.00     0.211 HD
ENDBRANCH  29  30
ENDBRANCH   1  29
TORSDOF 5
