REMARK SMILES N#Cc1ccc2c(c1)N(CCCN1CCC(O)CC1)c1ccccc1S2
REMARK SMILES IDX 11 1 12 2 13 3 16 4 15 5 18 6 14 7 19 8 17 9 10 11 9 12
REMARK SMILES IDX 20 13 7 14 21 15 25 16 6 17 8 18 22 19 24 20 26 21 5 22 3 23
REMARK SMILES IDX 23 24 4 25 2 26 1 27
REMARK H PARENT 17 10
REMARK Flexibility Score: inf
ROOT
ATOM      1  C   UNL     1       0.516  -0.252   0.709  1.00  0.00     0.037 C 
ENDROOT
BRANCH   1   2
ATOM      2  C   UNL     1       1.953  -0.533   0.239  1.00  0.00     0.086 C 
BRANCH   2   3
ATOM      3  N   UNL     1       2.394   0.416  -0.810  1.00  0.00    -0.303 NA
ATOM      4  C   UNL     1       4.867   2.122  -1.129  1.00  0.00     0.117 C 
ATOM      5  C   UNL     1       4.900   0.594  -0.914  1.00  0.00     0.047 C 
ATOM      6  C   UNL     1       3.427   2.685  -1.124  1.00  0.00     0.047 C 
ATOM      7  C   UNL     1       3.634  -0.061  -1.482  1.00  0.00     0.087 C 
ATOM      8  C   UNL     1       2.487   1.807  -0.288  1.00  0.00     0.087 C 
BRANCH   4   9
ATOM      9  O   UNL     1       5.668   2.767  -0.170  1.00  0.00    -0.393 OA
ATOM     10  H   UNL     1       5.227   2.660   0.714  1.00  0.00     0.210 HD
ENDBRANCH   4   9
ENDBRANCH   2   3
ENDBRANCH   1   2
BRANCH   1  11
ATOM     11  C   UNL     1      -0.493  -0.271  -0.462  1.00  0.00     0.124 C 
BRANCH  11  12
ATOM     12  N   UNL     1      -1.834  -0.708  -0.035  1.00  0.00    -0.340 N 
ATOM     13  C   UNL     1      -2.185  -2.119  -0.043  1.00  0.00     0.055 A 
ATOM     14  C   UNL     1      -2.831   0.249   0.413  1.00  0.00     0.057 A 
ATOM     15  C   UNL     1      -1.234  -3.122   0.240  1.00  0.00     0.027 A 
ATOM     16  C   UNL     1      -3.529  -2.503  -0.231  1.00  0.00     0.036 A 
ATOM     17  C   UNL     1      -4.201  -0.030   0.231  1.00  0.00     0.036 A 
ATOM     18  C   UNL     1      -2.473   1.411   1.127  1.00  0.00     0.047 A 
ATOM     19  C   UNL     1      -1.634  -4.451   0.414  1.00  0.00     0.002 A 
ATOM     20  C   UNL     1      -3.928  -3.829  -0.028  1.00  0.00     0.017 A 
ATOM     21  S   UNL     1      -4.701  -1.328  -0.894  1.00  0.00    -0.086 SA
ATOM     22  C   UNL     1      -5.179   0.779   0.817  1.00  0.00     0.019 A 
ATOM     23  C   UNL     1      -3.456   2.235   1.690  1.00  0.00     0.054 A 
ATOM     24  C   UNL     1      -2.981  -4.800   0.302  1.00  0.00     0.001 A 
ATOM     25  C   UNL     1      -4.808   1.906   1.551  1.00  0.00     0.021 A 
BRANCH  23  26
ATOM     26  C   UNL     1      -3.074   3.419   2.415  1.00  0.00     0.099 C 
ATOM     27  N   UNL     1      -2.765   4.372   2.995  1.00  0.00    -0.192 NA
ENDBRANCH  23  26
ENDBRANCH  11  12
ENDBRANCH   1  11
TORSDOF 6
