REMARK SMILES O=P(O)(O)C(Sc1ccc(Cl)cc1)P(=O)(O)O
REMARK SMILES IDX 5 1 2 2 1 3 3 4 4 6 6 8 7 9 8 10 13 11 9 12 12 13 10 14
REMARK SMILES IDX 11 15 14 16 15 17 16 18 17 20
REMARK H PARENT 3 5 4 7 16 19 17 21
REMARK Flexibility Score: inf
ROOT
ATOM      1  C   UNL     1      -1.082   0.053   0.210  1.00  0.00     0.280 C 
ENDROOT
BRANCH   1   2
ATOM      2  P   UNL     1      -1.699   1.580   0.988  1.00  0.00     0.351 P 
ATOM      3  O   UNL     1      -0.533   2.501   1.268  1.00  0.00    -0.258 OA
BRANCH   2   4
ATOM      4  O   UNL     1      -2.477   1.207   2.444  1.00  0.00    -0.323 OA
ATOM      5  H   UNL     1      -2.815   2.076   2.780  1.00  0.00     0.221 HD
ENDBRANCH   2   4
BRANCH   2   6
ATOM      6  O   UNL     1      -2.778   2.364  -0.054  1.00  0.00    -0.323 OA
ATOM      7  H   UNL     1      -3.672   2.021   0.198  1.00  0.00     0.221 HD
ENDBRANCH   2   6
ENDBRANCH   1   2
BRANCH   1   8
ATOM      8  S   UNL     1       0.053  -0.797   1.366  1.00  0.00    -0.097 SA
BRANCH   8   9
ATOM      9  C   UNL     1       1.537  -0.486   0.407  1.00  0.00     0.009 A 
ATOM     10  C   UNL     1       2.313   0.652   0.661  1.00  0.00     0.016 A 
ATOM     11  C   UNL     1       1.924  -1.385  -0.594  1.00  0.00     0.016 A 
ATOM     12  C   UNL     1       3.467   0.894  -0.090  1.00  0.00     0.021 A 
ATOM     13  C   UNL     1       3.078  -1.142  -1.346  1.00  0.00     0.021 A 
ATOM     14  C   UNL     1       3.851  -0.002  -1.095  1.00  0.00     0.041 A 
ATOM     15  Cl  UNL     1       5.298   0.303  -2.038  1.00  0.00    -0.084 Cl
ENDBRANCH   8   9
ENDBRANCH   1   8
BRANCH   1  16
ATOM     16  P   UNL     1      -2.467  -1.060  -0.193  1.00  0.00     0.351 P 
ATOM     17  O   UNL     1      -3.231  -1.416   1.063  1.00  0.00    -0.258 OA
BRANCH  16  18
ATOM     18  O   UNL     1      -1.865  -2.472  -0.907  1.00  0.00    -0.323 OA
ATOM     19  H   UNL     1      -1.406  -2.956  -0.175  1.00  0.00     0.221 HD
ENDBRANCH  16  18
BRANCH  16  20
ATOM     20  O   UNL     1      -3.508  -0.296  -1.287  1.00  0.00    -0.323 OA
ATOM     21  H   UNL     1      -4.196  -0.977  -1.498  1.00  0.00     0.221 HD
ENDBRANCH  16  20
ENDBRANCH   1  16
TORSDOF 8
