REMARK SMILES CC[C@@H]1C(=O)OC[C@@H]1Cc1cncn1C
REMARK SMILES IDX 3 1 8 2 7 3 6 4 4 5 5 6 2 7 1 8 9 9 10 10 11 11 14 12 12 13
REMARK SMILES IDX 13 14 15 15
REMARK H PARENT
REMARK Flexibility Score: inf
ROOT
ATOM      1  C   UNL     1       1.979  -0.453   0.125  1.00  0.00     0.106 C 
ATOM      2  C   UNL     1       0.537  -0.662   0.687  1.00  0.00     0.047 C 
ATOM      3  C   UNL     1       0.017  -1.909  -0.072  1.00  0.00     0.237 C 
ATOM      4  O   UNL     1       0.782  -1.974  -1.261  1.00  0.00    -0.465 OA
ATOM      5  C   UNL     1       1.901  -1.179  -1.171  1.00  0.00     0.309 C 
ATOM      6  O   UNL     1       2.781  -1.149  -2.070  1.00  0.00    -0.252 OA
ENDROOT
BRANCH   1   7
ATOM      7  C   UNL     1       2.451   1.015  -0.001  1.00  0.00     0.012 C 
ATOM      8  C   UNL     1       3.952   1.132  -0.272  1.00  0.00     0.005 C 
ENDBRANCH   1   7
BRANCH   2   9
ATOM      9  C   UNL     1      -0.413   0.547   0.477  1.00  0.00     0.063 C 
BRANCH   9  10
ATOM     10  C   UNL     1      -1.782   0.297   1.053  1.00  0.00     0.037 A 
ATOM     11  C   UNL     1      -2.077   0.117   2.388  1.00  0.00     0.134 A 
ATOM     12  N   UNL     1      -2.933   0.227   0.357  1.00  0.00    -0.338 N 
ATOM     13  N   UNL     1      -3.406  -0.063   2.532  1.00  0.00    -0.245 NA
ATOM     14  C   UNL     1      -3.895   0.013   1.275  1.00  0.00     0.199 A 
ATOM     15  C   UNL     1      -3.127   0.405  -1.079  1.00  0.00     0.151 C 
ENDBRANCH   9  10
ENDBRANCH   2   9
TORSDOF 3
