REMARK SMILES Cc1c(-c2ccccc2)oc2c(C(=O)OCCN3CCCCC3)cccc2c1=O
REMARK SMILES IDX 15 1 13 2 14 3 12 4 1 5 2 6 3 7 28 8 10 9 27 10 29 11 11 12
REMARK SMILES IDX 26 13 25 14 24 15 4 16 5 17 9 18 6 19 8 20 7 21 16 22 17 23
REMARK SMILES IDX 18 24 19 25 23 26 20 27 22 28 21 29
REMARK H PARENT
REMARK Flexibility Score: inf
ROOT
ATOM      1  O   UNL     1       1.490  -2.044  -0.669  1.00  0.00    -0.461 OA
ENDROOT
BRANCH   1   2
ATOM      2  C   UNL     1       0.211  -1.539  -0.399  1.00  0.00     0.342 C 
ATOM      3  O   UNL     1      -0.145  -0.436  -0.899  1.00  0.00    -0.246 OA
BRANCH   2   4
ATOM      4  C   UNL     1      -0.716  -2.311   0.469  1.00  0.00     0.103 A 
ATOM      5  C   UNL     1      -5.851  -0.242   1.855  1.00  0.00     0.053 C 
ATOM      6  C   UNL     1      -4.513  -0.826   1.463  1.00  0.00     0.040 A 
ATOM      7  C   UNL     1      -3.624  -0.145   0.597  1.00  0.00     0.141 A 
ATOM      8  C   UNL     1      -4.121  -2.082   1.960  1.00  0.00     0.196 A 
ATOM      9  O   UNL     1      -2.429  -0.664   0.330  1.00  0.00    -0.455 OA
ATOM     10  C   UNL     1      -2.854  -2.596   1.636  1.00  0.00     0.066 A 
ATOM     11  O   UNL     1      -4.904  -2.743   2.698  1.00  0.00    -0.289 OA
ATOM     12  C   UNL     1      -2.006  -1.832   0.803  1.00  0.00     0.153 A 
ATOM     13  C   UNL     1      -2.412  -3.837   2.126  1.00  0.00     0.016 A 
ATOM     14  C   UNL     1      -1.143  -4.309   1.795  1.00  0.00     0.002 A 
ATOM     15  C   UNL     1      -0.301  -3.555   0.978  1.00  0.00     0.019 A 
BRANCH   7  16
ATOM     16  C   UNL     1      -3.955   1.149  -0.037  1.00  0.00     0.018 A 
ATOM     17  C   UNL     1      -3.050   2.218   0.059  1.00  0.00     0.012 A 
ATOM     18  C   UNL     1      -5.125   1.304  -0.801  1.00  0.00     0.012 A 
ATOM     19  C   UNL     1      -3.332   3.438  -0.564  1.00  0.00     0.001 A 
ATOM     20  C   UNL     1      -5.403   2.526  -1.423  1.00  0.00     0.001 A 
ATOM     21  C   UNL     1      -4.509   3.593  -1.301  1.00  0.00     0.000 A 
ENDBRANCH   7  16
ENDBRANCH   2   4
ENDBRANCH   1   2
BRANCH   1  22
ATOM     22  C   UNL     1       2.469  -1.343  -1.434  1.00  0.00     0.248 C 
BRANCH  22  23
ATOM     23  C   UNL     1       3.103  -0.226  -0.601  1.00  0.00     0.126 C 
BRANCH  23  24
ATOM     24  N   UNL     1       4.109   0.499  -1.410  1.00  0.00    -0.300 NA
ATOM     25  C   UNL     1       4.123   1.955  -1.152  1.00  0.00     0.084 C 
ATOM     26  C   UNL     1       5.466  -0.089  -1.326  1.00  0.00     0.084 C 
ATOM     27  C   UNL     1       4.756   2.294   0.204  1.00  0.00     0.016 C 
ATOM     28  C   UNL     1       6.184   0.236  -0.002  1.00  0.00     0.016 C 
ATOM     29  C   UNL     1       6.178   1.740   0.276  1.00  0.00     0.003 C 
ENDBRANCH  23  24
ENDBRANCH  22  23
ENDBRANCH   1  22
TORSDOF 6
