REMARK SMILES Nc1cc(-c2ccncc2)c[nH]c1=O
REMARK SMILES IDX 2 1 3 2 4 3 11 4 12 5 13 6 14 7 1 9 5 12 6 13 10 14 7 15
REMARK SMILES IDX 9 16 8 17
REMARK H PARENT 12 8 1 10 1 11
REMARK Flexibility Score: inf
ROOT
ATOM      1  C   UNL     1       2.375   0.721   0.283  1.00  0.00     0.098 A 
ATOM      2  C   UNL     1       0.983   0.764   0.425  1.00  0.00     0.041 A 
ATOM      3  C   UNL     1       0.176  -0.223  -0.162  1.00  0.00     0.000 A 
ATOM      4  C   UNL     1       0.800  -1.248  -0.891  1.00  0.00     0.094 A 
ATOM      5  N   UNL     1       2.154  -1.277  -1.022  1.00  0.00    -0.327 N 
ATOM      6  C   UNL     1       2.949  -0.326  -0.457  1.00  0.00     0.271 A 
ATOM      7  O   UNL     1       4.199  -0.392  -0.604  1.00  0.00    -0.267 OA
ATOM      8  H   UNL     1       2.589  -2.050  -1.574  1.00  0.00     0.169 HD
ENDROOT
BRANCH   1   9
ATOM      9  N   UNL     1       3.188   1.731   0.890  1.00  0.00    -0.394 N 
ATOM     10  H   UNL     1       4.229   1.718   0.799  1.00  0.00     0.156 HD
ATOM     11  H   UNL     1       2.754   2.506   1.439  1.00  0.00     0.156 HD
ENDBRANCH   1   9
BRANCH   3  12
ATOM     12  C   UNL     1      -1.302  -0.184  -0.016  1.00  0.00    -0.014 A 
ATOM     13  C   UNL     1      -1.997   1.036  -0.081  1.00  0.00     0.029 A 
ATOM     14  C   UNL     1      -2.034  -1.366   0.190  1.00  0.00     0.029 A 
ATOM     15  C   UNL     1      -3.387   1.050   0.059  1.00  0.00     0.111 A 
ATOM     16  C   UNL     1      -3.423  -1.307   0.325  1.00  0.00     0.111 A 
ATOM     17  N   UNL     1      -4.065  -0.111   0.257  1.00  0.00    -0.265 NA
ENDBRANCH   3  12
TORSDOF 2
