REMARK SMILES COc1ccc2cc1Oc1cc3c(cc1OC)CC[N+](C)(C)[C@H]3Cc1ccc(cc1)Oc1c(OC)c(OC)cc3c1[C@@H](C2)[N+](C)(C)CC3
REMARK SMILES IDX 24 1 23 2 20 3 12 4 19 5 21 6 22 7 13 8 11 9 18 10 14 11
REMARK SMILES IDX 10 12 15 13 9 14 8 15 7 16 3 17 6 18 4 19 5 20 2 21 1 22
REMARK SMILES IDX 43 23 16 25 17 26 25 27 26 28 30 29 27 30 29 31 28 32 31 33
REMARK SMILES IDX 32 34 41 35 33 36 40 37 42 38 36 39 48 40 39 41 44 42 47 44
REMARK SMILES IDX 45 45 46 46 34 47 35 48 37 49 38 50
REMARK H PARENT
REMARK Flexibility Score: 70.00
ROOT
ATOM      1  C   UNL     1       2.572  -2.164   1.147  1.00  0.00     0.105 C 
ENDROOT
BRANCH   1   2
ATOM      2  C   UNL     1       3.230  -1.943  -0.273  1.00  0.00     0.221 C 
ATOM      3  N   UNL     1       4.239  -2.988  -0.624  1.00  0.00    -0.322 N 
ATOM      4  C   UNL     1       3.866  -0.565  -0.260  1.00  0.00     0.017 A 
ATOM      5  C   UNL     1       5.375  -2.957   0.350  1.00  0.00     0.268 C 
ATOM      6  C   UNL     1       4.741  -2.795  -2.012  1.00  0.00     0.334 C 
ATOM      7  C   UNL     1       3.589  -4.338  -0.596  1.00  0.00     0.334 C 
ATOM      8  C   UNL     1       5.158  -0.389   0.255  1.00  0.00    -0.029 A 
ATOM      9  C   UNL     1       3.099   0.551  -0.551  1.00  0.00     0.061 A 
ATOM     10  C   UNL     1       6.065  -1.574   0.441  1.00  0.00     0.097 C 
ATOM     11  C   UNL     1       5.647   0.898   0.499  1.00  0.00     0.055 A 
ATOM     12  C   UNL     1       3.529   1.848  -0.235  1.00  0.00     0.170 A 
ATOM     13  C   UNL     1       4.825   2.021   0.275  1.00  0.00     0.161 A 
BRANCH  12  14
ATOM     14  O   UNL     1       2.741   2.983  -0.469  1.00  0.00    -0.450 OA
BRANCH  14  15
ATOM     15  C   UNL     1       1.402   2.990  -0.911  1.00  0.00     0.169 A 
ATOM     16  C   UNL     1       0.422   2.137  -0.380  1.00  0.00     0.055 A 
ATOM     17  C   UNL     1       1.067   3.860  -1.942  1.00  0.00     0.161 A 
ATOM     18  C   UNL     1      -0.864   2.085  -0.958  1.00  0.00    -0.038 A 
ATOM     19  C   UNL     1      -0.204   3.811  -2.500  1.00  0.00     0.051 A 
ATOM     20  C   UNL     1      -1.160   2.935  -2.030  1.00  0.00     0.008 A 
BRANCH  17  21
ATOM     21  O   UNL     1       2.028   4.747  -2.434  1.00  0.00    -0.493 OA
ATOM     22  C   UNL     1       2.631   4.540  -3.704  1.00  0.00     0.278 C 
ENDBRANCH  17  21
BRANCH  18  23
ATOM     23  C   UNL     1      -1.805   0.940  -0.614  1.00  0.00     0.106 CG0
ATOM     24  G   UNL     1      -2.652   0.920   0.737  1.00  0.00     0.000 G0
ENDBRANCH  18  23
ENDBRANCH  14  15
ENDBRANCH  12  14
BRANCH  13  25
ATOM     25  O   UNL     1       5.282   3.328   0.523  1.00  0.00    -0.493 OA
ATOM     26  C   UNL     1       6.526   3.682   1.110  1.00  0.00     0.278 C 
ENDBRANCH  13  25
ENDBRANCH   1   2
BRANCH   1  27
ATOM     27  C   UNL     1       1.041  -2.217   1.187  1.00  0.00    -0.041 A 
ATOM     28  C   UNL     1       0.438  -1.909   2.413  1.00  0.00     0.008 A 
ATOM     29  C   UNL     1       0.218  -2.609   0.104  1.00  0.00     0.008 A 
ATOM     30  C   UNL     1      -0.947  -1.837   2.517  1.00  0.00     0.047 A 
ATOM     31  C   UNL     1      -1.180  -2.500   0.208  1.00  0.00     0.047 A 
ATOM     32  C   UNL     1      -1.766  -2.078   1.410  1.00  0.00     0.127 A 
BRANCH  32  33
ATOM     33  O   UNL     1      -3.147  -1.975   1.560  1.00  0.00    -0.453 OA
BRANCH  33  34
ATOM     34  C   UNL     1      -4.057  -1.306   0.744  1.00  0.00     0.182 A 
ATOM     35  C   UNL     1      -3.882   0.069   0.411  1.00  0.00     0.060 A 
ATOM     36  C   UNL     1      -5.269  -1.966   0.388  1.00  0.00     0.204 A 
ATOM     37  C   UNL     1      -4.917   0.761  -0.252  1.00  0.00    -0.026 A 
ATOM     38  C   UNL     1      -2.652   0.920   0.737  1.00  0.00     0.225 CG0
ATOM     39  C   UNL     1      -6.312  -1.229  -0.204  1.00  0.00     0.164 A 
ATOM     40  C   UNL     1      -4.758   2.231  -0.626  1.00  0.00     0.097 C 
ATOM     41  C   UNL     1      -6.118   0.112  -0.524  1.00  0.00     0.055 A 
ATOM     42  N   UNL     1      -3.117   2.241   1.328  1.00  0.00    -0.322 N 
ATOM     43  G   UNL     1      -1.805   0.940  -0.614  1.00  0.00     0.000 G0
ATOM     44  C   UNL     1      -3.843   3.054   0.315  1.00  0.00     0.268 C 
ATOM     45  C   UNL     1      -4.012   2.004   2.502  1.00  0.00     0.334 C 
ATOM     46  C   UNL     1      -1.976   3.003   1.905  1.00  0.00     0.334 C 
BRANCH  36  47
ATOM     47  O   UNL     1      -5.495  -3.318   0.667  1.00  0.00    -0.490 OA
ATOM     48  C   UNL     1      -4.504  -4.336   0.680  1.00  0.00     0.278 C 
ENDBRANCH  36  47
BRANCH  39  49
ATOM     49  O   UNL     1      -7.578  -1.782  -0.429  1.00  0.00    -0.493 OA
ATOM     50  C   UNL     1      -7.796  -2.927  -1.255  1.00  0.00     0.278 C 
ENDBRANCH  39  49
ENDBRANCH  33  34
ENDBRANCH  32  33
ENDBRANCH   1  27
TORSDOF 4
