REMARK SMILES CC(C)(C)NCC(O)c1ccc(O)c(CO)c1
REMARK SMILES IDX 7 1 6 2 5 3 2 5 1 6 3 7 4 8 8 9 9 11 17 12 10 13 14 14 11 15
REMARK SMILES IDX 12 16 15 17 16 18 13 20
REMARK H PARENT 5 4 8 10 16 19 13 21
REMARK Flexibility Score: inf
ROOT
ATOM      1  C   UNL     1       0.288  -0.155  -1.109  1.00  0.00     0.158 C 
ENDROOT
BRANCH   1   2
ATOM      2  C   UNL     1      -0.970  -0.191  -0.222  1.00  0.00     0.118 C 
BRANCH   2   3
ATOM      3  N   UNL     1      -2.110  -0.718  -0.992  1.00  0.00    -0.309 NA
ATOM      4  H   UNL     1      -1.940  -1.742  -1.135  1.00  0.00     0.123 HD
BRANCH   3   5
ATOM      5  C   UNL     1      -3.442  -0.532  -0.363  1.00  0.00     0.010 C 
ATOM      6  C   UNL     1      -4.481  -1.290  -1.216  1.00  0.00     0.027 C 
ATOM      7  C   UNL     1      -3.836   0.962  -0.355  1.00  0.00     0.027 C 
ATOM      8  C   UNL     1      -3.484  -1.098   1.075  1.00  0.00     0.027 C 
ENDBRANCH   3   5
ENDBRANCH   2   3
ENDBRANCH   1   2
BRANCH   1   9
ATOM      9  O   UNL     1       0.090   0.628  -2.261  1.00  0.00    -0.387 OA
ATOM     10  H   UNL     1      -0.278   1.506  -1.981  1.00  0.00     0.211 HD
ENDBRANCH   1   9
BRANCH   1  11
ATOM     11  C   UNL     1       1.498   0.329  -0.333  1.00  0.00    -0.018 A 
ATOM     12  C   UNL     1       2.552  -0.555  -0.046  1.00  0.00     0.016 A 
ATOM     13  C   UNL     1       1.576   1.653   0.128  1.00  0.00     0.010 A 
ATOM     14  C   UNL     1       3.674  -0.130   0.687  1.00  0.00     0.020 A 
ATOM     15  C   UNL     1       2.691   2.087   0.846  1.00  0.00     0.047 A 
ATOM     16  C   UNL     1       3.745   1.212   1.125  1.00  0.00     0.121 A 
BRANCH  14  17
ATOM     17  C   UNL     1       4.788  -1.111   0.962  1.00  0.00     0.195 C 
BRANCH  17  18
ATOM     18  O   UNL     1       5.919  -0.787   0.201  1.00  0.00    -0.392 OA
ATOM     19  H   UNL     1       5.716  -1.055  -0.734  1.00  0.00     0.211 HD
ENDBRANCH  17  18
ENDBRANCH  14  17
BRANCH  16  20
ATOM     20  O   UNL     1       4.842   1.707   1.834  1.00  0.00    -0.508 OA
ATOM     21  H   UNL     1       5.655   1.148   2.059  1.00  0.00     0.293 HD
ENDBRANCH  16  20
ENDBRANCH   1  11
TORSDOF 8
