REMARK SMILES C#CCN(C)[C@H](C)Cc1ccccc1
REMARK SMILES IDX 7 1 6 2 8 3 9 4 10 5 14 6 11 7 13 8 12 9 4 10 5 11 3 12 2 13
REMARK SMILES IDX 1 14
REMARK H PARENT
REMARK Flexibility Score: inf
ROOT
ATOM      1  C   UNL     1       1.345  -0.827  -1.291  1.00  0.00     0.025 C 
ATOM      2  C   UNL     1      -0.008  -0.728  -0.572  1.00  0.00     0.058 C 
ENDROOT
BRANCH   2   3
ATOM      3  C   UNL     1       0.168  -0.346   0.923  1.00  0.00     0.054 C 
BRANCH   3   4
ATOM      4  C   UNL     1       0.639   1.078   1.085  1.00  0.00    -0.046 A 
ATOM      5  C   UNL     1       1.997   1.360   1.310  1.00  0.00     0.004 A 
ATOM      6  C   UNL     1      -0.275   2.140   0.975  1.00  0.00     0.004 A 
ATOM      7  C   UNL     1       2.430   2.683   1.434  1.00  0.00     0.000 A 
ATOM      8  C   UNL     1       0.162   3.462   1.100  1.00  0.00     0.000 A 
ATOM      9  C   UNL     1       1.514   3.733   1.330  1.00  0.00     0.000 A 
ENDBRANCH   3   4
ENDBRANCH   2   3
BRANCH   2  10
ATOM     10  N   UNL     1      -0.780  -1.987  -0.781  1.00  0.00    -0.292 NA
ATOM     11  C   UNL     1      -0.380  -3.094   0.108  1.00  0.00     0.106 C 
BRANCH  10  12
ATOM     12  C   UNL     1      -2.241  -1.774  -0.735  1.00  0.00     0.174 C 
BRANCH  12  13
ATOM     13  C   UNL     1      -2.705  -1.185  -1.997  1.00  0.00    -0.091 C 
ATOM     14  C   UNL     1      -3.084  -0.699  -3.033  1.00  0.00     0.005 C 
ENDBRANCH  12  13
ENDBRANCH  10  12
ENDBRANCH   2  10
TORSDOF 5
