REMARK SMILES O=C1CN=C(c2ccccc2)c2cc(Cl)ccc2N1CC1CC1
REMARK SMILES IDX 15 1 14 2 13 3 12 4 18 5 17 6 16 7 5 8 4 9 6 10 7 11 11 12
REMARK SMILES IDX 8 13 10 14 9 15 3 16 19 18 20 19 21 20 22 21 23 22 2 23 1 24
REMARK H PARENT
REMARK Flexibility Score: 90.00
ROOT
ATOM      1  Cl  UNL     1      -2.248   2.644  -3.946  1.00  0.00    -0.084 Cl
ATOM      2  C   UNL     1      -1.171   1.818  -2.835  1.00  0.00     0.041 A 
ATOM      3  C   UNL     1      -1.645   0.762  -2.056  1.00  0.00     0.033 A 
ATOM      4  C   UNL     1      -0.797   0.091  -1.156  1.00  0.00     0.026 A 
ATOM      5  C   UNL     1       0.565   0.487  -1.059  1.00  0.00     0.053 A 
ATOM      6  C   UNL     1       1.021   1.558  -1.852  1.00  0.00     0.028 A 
ATOM      7  C   UNL     1       0.161   2.216  -2.730  1.00  0.00     0.023 A 
ENDROOT
BRANCH   4   8
ATOM      8  C   UNL     1      -1.367  -1.018  -0.335  1.00  0.00     0.075 C 
ATOM      9  N   UNL     1      -0.747  -2.157  -0.217  1.00  0.00    -0.274 NA
BRANCH   8  10
ATOM     10  C   UNL     1      -2.686  -0.858   0.333  1.00  0.00     0.000 A 
ATOM     11  C   UNL     1      -3.120   0.407   0.775  1.00  0.00     0.010 A 
ATOM     12  C   UNL     1      -3.511  -1.976   0.560  1.00  0.00     0.010 A 
ATOM     13  C   UNL     1      -4.357   0.550   1.411  1.00  0.00     0.001 A 
ATOM     14  C   UNL     1      -4.747  -1.827   1.197  1.00  0.00     0.001 A 
ATOM     15  C   UNL     1      -5.170  -0.566   1.620  1.00  0.00     0.000 A 
ENDBRANCH   8  10
BRANCH   9  16
ATOM     16  C   UNL     1       0.556  -2.458  -0.794  1.00  0.00     0.243 CG0
ATOM     17  G   UNL     1       1.586  -1.609  -0.123  1.00  0.00     0.000 G0
ENDBRANCH   9  16
ENDBRANCH   4   8
BRANCH   5  18
ATOM     18  N   UNL     1       1.487  -0.170  -0.156  1.00  0.00    -0.310 N 
BRANCH  18  19
ATOM     19  C   UNL     1       2.368   0.636   0.702  1.00  0.00     0.129 C 
BRANCH  19  20
ATOM     20  C   UNL     1       3.797   0.657   0.139  1.00  0.00     0.009 C 
ATOM     21  C   UNL     1       4.855  -0.087   0.942  1.00  0.00     0.006 C 
ATOM     22  C   UNL     1       4.788   1.429   0.997  1.00  0.00     0.006 C 
ENDBRANCH  19  20
ENDBRANCH  18  19
BRANCH  18  23
ATOM     23  C   UNL     1       1.586  -1.609  -0.123  1.00  0.00     0.248 CG0
ATOM     24  O   UNL     1       2.524  -2.169   0.506  1.00  0.00    -0.272 OA
ATOM     25  G   UNL     1       0.556  -2.458  -0.794  1.00  0.00     0.000 G0
ENDBRANCH  18  23
ENDBRANCH   5  18
TORSDOF 3
