REMARK SMILES Cc1nc(Nc2ncc(C(=O)Nc3c(C)cccc3Cl)s2)cc(N2CCN(CCO)CC2)n1
REMARK SMILES IDX 1 1 2 2 3 3 4 4 22 5 23 6 33 7 5 8 6 10 7 11 21 12 8 13 9 14
REMARK SMILES IDX 10 15 11 16 12 17 13 19 14 20 19 21 15 22 16 23 18 24 20 25
REMARK SMILES IDX 17 26 24 27 25 28 32 29 26 30 31 31 27 32 28 33 29 34 30 35
REMARK H PARENT 5 9 12 18 30 36
REMARK Flexibility Score: inf
ROOT
ATOM      1  C   UNL     1      -1.615   4.227   1.646  1.00  0.00     0.090 C 
ATOM      2  C   UNL     1      -1.840   2.947   0.915  1.00  0.00     0.130 A 
ATOM      3  N   UNL     1      -0.803   2.098   0.692  1.00  0.00    -0.216 NA
ATOM      4  C   UNL     1      -0.984   0.914   0.046  1.00  0.00     0.137 A 
ATOM      5  C   UNL     1      -2.266   0.559  -0.390  1.00  0.00     0.094 A 
ATOM      6  C   UNL     1      -3.328   1.448  -0.168  1.00  0.00     0.134 A 
ATOM      7  N   UNL     1      -3.090   2.612   0.499  1.00  0.00    -0.216 NA
ENDROOT
BRANCH   4   8
ATOM      8  N   UNL     1       0.120   0.017  -0.158  1.00  0.00    -0.316 N 
ATOM      9  H   UNL     1      -0.077  -0.958  -0.474  1.00  0.00     0.170 HD
BRANCH   8  10
ATOM     10  C   UNL     1       1.493   0.409  -0.032  1.00  0.00     0.189 A 
ATOM     11  N   UNL     1       1.904   1.689   0.110  1.00  0.00    -0.228 NA
ATOM     12  S   UNL     1       2.790  -0.656  -0.153  1.00  0.00    -0.091 S 
ATOM     13  C   UNL     1       3.260   1.784   0.133  1.00  0.00     0.139 A 
ATOM     14  C   UNL     1       3.934   0.573   0.002  1.00  0.00     0.114 A 
BRANCH  14  15
ATOM     15  C   UNL     1       5.398   0.405  -0.034  1.00  0.00     0.267 C 
ATOM     16  O   UNL     1       6.139   1.428  -0.059  1.00  0.00    -0.268 OA
ATOM     17  N   UNL     1       5.985  -0.904  -0.030  1.00  0.00    -0.320 N 
ATOM     18  H   UNL     1       5.402  -1.727   0.243  1.00  0.00     0.170 HD
BRANCH  17  19
ATOM     19  C   UNL     1       7.401  -1.092  -0.182  1.00  0.00     0.063 A 
ATOM     20  C   UNL     1       8.170  -1.592   0.895  1.00  0.00    -0.026 A 
ATOM     21  C   UNL     1       8.030  -0.796  -1.411  1.00  0.00     0.064 A 
ATOM     22  C   UNL     1       7.518  -1.938   2.208  1.00  0.00     0.046 C 
ATOM     23  C   UNL     1       9.555  -1.768   0.731  1.00  0.00     0.005 A 
ATOM     24  C   UNL     1       9.410  -0.979  -1.556  1.00  0.00     0.023 A 
ATOM     25  Cl  UNL     1       7.103  -0.239  -2.803  1.00  0.00    -0.082 Cl
ATOM     26  C   UNL     1      10.171  -1.457  -0.486  1.00  0.00     0.002 A 
ENDBRANCH  17  19
ENDBRANCH  14  15
ENDBRANCH   8  10
ENDBRANCH   4   8
BRANCH   6  27
ATOM     27  N   UNL     1      -4.667   1.125  -0.585  1.00  0.00    -0.354 N 
ATOM     28  C   UNL     1      -5.800   1.545   0.245  1.00  0.00     0.133 C 
ATOM     29  C   UNL     1      -4.941   0.532  -1.899  1.00  0.00     0.133 C 
ATOM     30  C   UNL     1      -7.112   0.927  -0.272  1.00  0.00     0.106 C 
ATOM     31  C   UNL     1      -5.919  -0.650  -1.759  1.00  0.00     0.106 C 
ATOM     32  N   UNL     1      -6.921  -0.486  -0.666  1.00  0.00    -0.298 NA
BRANCH  32  33
ATOM     33  C   UNL     1      -6.647  -1.361   0.504  1.00  0.00     0.112 C 
BRANCH  33  34
ATOM     34  C   UNL     1      -7.353  -2.713   0.348  1.00  0.00     0.171 C 
BRANCH  34  35
ATOM     35  O   UNL     1      -6.766  -3.469  -0.677  1.00  0.00    -0.395 OA
ATOM     36  H   UNL     1      -7.282  -3.277  -1.510  1.00  0.00     0.210 HD
ENDBRANCH  34  35
ENDBRANCH  33  34
ENDBRANCH  32  33
ENDBRANCH   6  27
TORSDOF 8
