REMARK SMILES COc1ccc([C@@H]2CC(=O)c3c(O)cc(O)cc3O2)cc1O
REMARK SMILES IDX 7 1 8 2 9 3 10 4 11 5 12 6 14 7 15 8 17 9 18 10 19 11 6 12
REMARK SMILES IDX 3 13 21 14 4 15 20 16 5 17 2 18 1 19 22 20 13 22 16 24
REMARK H PARENT 22 21 13 23 16 25
REMARK Flexibility Score: inf
ROOT
ATOM      1  C   UNL     1      -0.194   0.430  -0.692  1.00  0.00     0.211 C 
ATOM      2  C   UNL     1      -0.750   1.670   0.024  1.00  0.00     0.131 C 
ATOM      3  C   UNL     1      -2.223   1.769  -0.238  1.00  0.00     0.174 C 
ATOM      4  O   UNL     1      -2.717   2.877  -0.575  1.00  0.00    -0.294 OA
ATOM      5  C   UNL     1      -3.048   0.539  -0.154  1.00  0.00     0.102 A 
ATOM      6  C   UNL     1      -4.459   0.535   0.004  1.00  0.00     0.133 A 
ATOM      7  C   UNL     1      -5.150  -0.683   0.004  1.00  0.00     0.093 A 
ATOM      8  C   UNL     1      -4.461  -1.897  -0.093  1.00  0.00     0.123 A 
ATOM      9  C   UNL     1      -3.070  -1.898  -0.201  1.00  0.00     0.093 A 
ATOM     10  C   UNL     1      -2.364  -0.693  -0.243  1.00  0.00     0.138 A 
ATOM     11  O   UNL     1      -0.969  -0.728  -0.367  1.00  0.00    -0.484 OA
ENDROOT
BRANCH   1  12
ATOM     12  C   UNL     1       1.252   0.205  -0.324  1.00  0.00    -0.003 A 
ATOM     13  C   UNL     1       3.958  -0.149   0.390  1.00  0.00     0.160 A 
ATOM     14  C   UNL     1       2.939  -0.556   1.262  1.00  0.00     0.158 A 
ATOM     15  C   UNL     1       3.616   0.446  -0.839  1.00  0.00     0.051 A 
ATOM     16  C   UNL     1       1.594  -0.375   0.909  1.00  0.00     0.057 A 
ATOM     17  C   UNL     1       2.275   0.625  -1.188  1.00  0.00     0.011 A 
BRANCH  13  18
ATOM     18  O   UNL     1       5.292  -0.349   0.779  1.00  0.00    -0.493 OA
ATOM     19  C   UNL     1       6.423   0.016  -0.006  1.00  0.00     0.278 C 
ENDBRANCH  13  18
BRANCH  14  20
ATOM     20  O   UNL     1       3.270  -1.139   2.484  1.00  0.00    -0.504 OA
ATOM     21  H   UNL     1       2.558  -1.443   3.138  1.00  0.00     0.293 HD
ENDBRANCH  14  20
ENDBRANCH   1  12
BRANCH   6  22
ATOM     22  O   UNL     1      -5.208   1.698   0.199  1.00  0.00    -0.507 OA
ATOM     23  H   UNL     1      -4.807   2.599   0.414  1.00  0.00     0.293 HD
ENDBRANCH   6  22
BRANCH   8  24
ATOM     24  O   UNL     1      -5.149  -3.108  -0.075  1.00  0.00    -0.508 OA
ATOM     25  H   UNL     1      -6.159  -3.142   0.005  1.00  0.00     0.293 HD
ENDBRANCH   8  24
TORSDOF 5
