REMARK SMILES COCC(=O)O[C@]1(CCN(C)CCCc2nc3ccccc3[nH]2)CCc2cc(F)ccc2[C@@H]1C(C)C
REMARK SMILES IDX 8 1 7 2 24 3 33 4 25 5 32 6 26 7 31 8 27 9 30 10 28 11 29 12
REMARK SMILES IDX 6 13 4 14 5 15 3 16 2 17 1 18 34 19 35 20 36 21 9 22 10 23
REMARK SMILES IDX 11 24 12 25 13 26 14 27 15 28 16 29 23 30 17 31 22 32 18 34
REMARK SMILES IDX 21 35 19 36 20 37
REMARK H PARENT 23 33
REMARK Flexibility Score: inf
ROOT
ATOM      1  C   UNL     1      -0.704  -0.150   0.126  1.00  0.00     0.065 C 
ENDROOT
BRANCH   1   2
ATOM      2  C   UNL     1      -2.271  -0.017   0.069  1.00  0.00     0.121 C 
ATOM      3  C   UNL     1      -2.636   1.163  -0.872  1.00  0.00     0.054 C 
ATOM      4  C   UNL     1      -2.986  -1.362  -0.411  1.00  0.00     0.066 C 
ATOM      5  C   UNL     1      -4.147   1.365  -0.924  1.00  0.00     0.040 C 
ATOM      6  C   UNL     1      -4.233  -1.140  -1.286  1.00  0.00    -0.037 A 
ATOM      7  C   UNL     1      -4.806   0.140  -1.476  1.00  0.00    -0.041 A 
ATOM      8  C   UNL     1      -4.832  -2.246  -1.929  1.00  0.00     0.007 A 
ATOM      9  C   UNL     1      -6.005   0.274  -2.194  1.00  0.00     0.043 A 
ATOM     10  C   UNL     1      -6.022  -2.101  -2.646  1.00  0.00     0.039 A 
ATOM     11  C   UNL     1      -6.616  -0.845  -2.765  1.00  0.00     0.123 A 
ATOM     12  F   UNL     1      -7.786  -0.711  -3.439  1.00  0.00    -0.207 F 
BRANCH   2  13
ATOM     13  O   UNL     1      -2.771   0.291   1.380  1.00  0.00    -0.457 OA
BRANCH  13  14
ATOM     14  C   UNL     1      -2.377   1.337   2.234  1.00  0.00     0.332 C 
ATOM     15  O   UNL     1      -1.416   2.102   1.950  1.00  0.00    -0.249 OA
BRANCH  14  16
ATOM     16  C   UNL     1      -3.144   1.561   3.500  1.00  0.00     0.282 C 
BRANCH  16  17
ATOM     17  O   UNL     1      -4.475   1.946   3.217  1.00  0.00    -0.373 OA
ATOM     18  C   UNL     1      -4.529   3.322   2.906  1.00  0.00     0.195 C 
ENDBRANCH  16  17
ENDBRANCH  14  16
ENDBRANCH  13  14
ENDBRANCH   2  13
BRANCH   4  19
ATOM     19  C   UNL     1      -3.308  -2.407   0.730  1.00  0.00    -0.006 C 
ATOM     20  C   UNL     1      -4.523  -2.048   1.615  1.00  0.00     0.008 C 
ATOM     21  C   UNL     1      -2.097  -2.769   1.602  1.00  0.00     0.008 C 
ENDBRANCH   4  19
ENDBRANCH   1   2
BRANCH   1  22
ATOM     22  C   UNL     1      -0.004  -0.756  -1.121  1.00  0.00     0.088 C 
BRANCH  22  23
ATOM     23  N   UNL     1       1.395  -0.290  -1.306  1.00  0.00    -0.306 NA
ATOM     24  C   UNL     1       1.464   1.129  -1.713  1.00  0.00     0.105 C 
BRANCH  23  25
ATOM     25  C   UNL     1       2.251  -0.595  -0.135  1.00  0.00     0.084 C 
BRANCH  25  26
ATOM     26  C   UNL     1       3.752  -0.575  -0.489  1.00  0.00     0.023 C 
BRANCH  26  27
ATOM     27  C   UNL     1       4.423   0.767  -0.159  1.00  0.00     0.076 C 
BRANCH  27  28
ATOM     28  C   UNL     1       5.913   0.655  -0.245  1.00  0.00     0.107 A 
ATOM     29  N   UNL     1       6.592   0.671  -1.424  1.00  0.00    -0.233 NA
ATOM     30  N   UNL     1       6.706   0.485   0.841  1.00  0.00    -0.342 N 
ATOM     31  C   UNL     1       7.868   0.519  -1.029  1.00  0.00     0.089 A 
ATOM     32  C   UNL     1       7.939   0.412   0.330  1.00  0.00     0.065 A 
ATOM     33  H   UNL     1       6.421   0.433   1.845  1.00  0.00     0.168 HD
ATOM     34  C   UNL     1       9.010   0.464  -1.828  1.00  0.00     0.030 A 
ATOM     35  C   UNL     1       9.146   0.237   1.001  1.00  0.00     0.028 A 
ATOM     36  C   UNL     1      10.251   0.290  -1.185  1.00  0.00     0.002 A 
ATOM     37  C   UNL     1      10.319   0.178   0.224  1.00  0.00     0.002 A 
ENDBRANCH  27  28
ENDBRANCH  26  27
ENDBRANCH  25  26
ENDBRANCH  23  25
ENDBRANCH  22  23
ENDBRANCH   1  22
TORSDOF 12
