REMARK SMILES CC(=O)Nc1ccc(OCC(O)CNC(C)C)cc1
REMARK SMILES IDX 10 1 11 2 13 3 14 4 15 6 16 7 17 8 12 9 9 11 8 12 7 13 18 14
REMARK SMILES IDX 6 15 19 16 5 17 4 18 2 19 1 21 3 22
REMARK H PARENT 14 5 12 10 4 20
REMARK Flexibility Score: inf
ROOT
ATOM      1  C   UNL     1      -0.770  -0.461  -0.146  1.00  0.00     0.262 C 
ENDROOT
BRANCH   1   2
ATOM      2  C   UNL     1      -2.065  -0.173   0.628  1.00  0.00     0.165 C 
BRANCH   2   3
ATOM      3  C   UNL     1      -3.297  -0.718  -0.130  1.00  0.00     0.116 C 
BRANCH   3   4
ATOM      4  N   UNL     1      -4.549  -0.557   0.637  1.00  0.00    -0.312 NA
ATOM      5  H   UNL     1      -4.338  -0.562   1.663  1.00  0.00     0.123 HD
BRANCH   4   6
ATOM      6  C   UNL     1      -5.309   0.651   0.257  1.00  0.00     0.047 C 
ATOM      7  C   UNL     1      -6.173   1.137   1.429  1.00  0.00     0.024 C 
ATOM      8  C   UNL     1      -6.206   0.339  -0.947  1.00  0.00     0.024 C 
ENDBRANCH   4   6
ENDBRANCH   3   4
ENDBRANCH   2   3
BRANCH   2   9
ATOM      9  O   UNL     1      -2.194   1.204   0.880  1.00  0.00    -0.388 OA
ATOM     10  H   UNL     1      -2.198   1.670   0.003  1.00  0.00     0.211 HD
ENDBRANCH   2   9
ENDBRANCH   1   2
BRANCH   1  11
ATOM     11  O   UNL     1       0.346   0.035   0.590  1.00  0.00    -0.491 OA
BRANCH  11  12
ATOM     12  C   UNL     1       1.681  -0.065   0.170  1.00  0.00     0.119 A 
ATOM     13  C   UNL     1       2.047  -0.676  -1.044  1.00  0.00     0.048 A 
ATOM     14  C   UNL     1       2.678   0.470   0.992  1.00  0.00     0.048 A 
ATOM     15  C   UNL     1       3.392  -0.751  -1.417  1.00  0.00     0.030 A 
ATOM     16  C   UNL     1       4.024   0.395   0.619  1.00  0.00     0.030 A 
ATOM     17  C   UNL     1       4.393  -0.234  -0.583  1.00  0.00     0.041 A 
BRANCH  17  18
ATOM     18  N   UNL     1       5.767  -0.304  -1.003  1.00  0.00    -0.326 N 
ATOM     19  C   UNL     1       6.879  -0.444  -0.105  1.00  0.00     0.221 C 
ATOM     20  H   UNL     1       5.966  -0.338  -2.028  1.00  0.00     0.169 HD
ATOM     21  C   UNL     1       8.274  -0.309  -0.622  1.00  0.00     0.114 C 
ATOM     22  O   UNL     1       6.696  -0.763   1.101  1.00  0.00    -0.275 OA
ENDBRANCH  17  18
ENDBRANCH  11  12
ENDBRANCH   1  11
TORSDOF 8
