REMARK SMILES CN[C@H]1CC[C@@H](c2ccc(Cl)c(Cl)c2)c2ccccc21
REMARK SMILES IDX 3 1 4 2 5 3 6 4 15 5 16 6 17 7 18 8 19 9 20 10 2 11 1 12
REMARK SMILES IDX 7 14 14 15 8 16 12 17 9 18 13 19 10 20 11 21
REMARK H PARENT 2 13
REMARK Flexibility Score: inf
ROOT
ATOM      1  C   UNL     1      -2.323   0.259  -1.240  1.00  0.00     0.084 C 
ATOM      2  C   UNL     1      -1.275   0.967  -2.125  1.00  0.00     0.025 C 
ATOM      3  C   UNL     1       0.065   1.173  -1.418  1.00  0.00     0.015 C 
ATOM      4  C   UNL     1       0.658  -0.160  -0.938  1.00  0.00     0.050 C 
ATOM      5  C   UNL     1      -0.349  -1.008  -0.172  1.00  0.00    -0.036 A 
ATOM      6  C   UNL     1       0.107  -2.093   0.605  1.00  0.00     0.005 A 
ATOM      7  C   UNL     1      -0.792  -2.937   1.257  1.00  0.00     0.000 A 
ATOM      8  C   UNL     1      -2.163  -2.739   1.114  1.00  0.00     0.000 A 
ATOM      9  C   UNL     1      -2.638  -1.702   0.312  1.00  0.00     0.005 A 
ATOM     10  C   UNL     1      -1.748  -0.828  -0.340  1.00  0.00    -0.027 A 
ENDROOT
BRANCH   1  11
ATOM     11  N   UNL     1      -3.182   1.222  -0.514  1.00  0.00    -0.313 NA
ATOM     12  C   UNL     1      -2.509   1.960   0.560  1.00  0.00     0.102 C 
ATOM     13  H   UNL     1      -3.995   0.711  -0.100  1.00  0.00     0.122 HD
ENDBRANCH   1  11
BRANCH   4  14
ATOM     14  C   UNL     1       1.913   0.122  -0.129  1.00  0.00    -0.039 A 
ATOM     15  C   UNL     1       3.180  -0.159  -0.669  1.00  0.00     0.026 A 
ATOM     16  C   UNL     1       1.829   0.693   1.154  1.00  0.00     0.006 A 
ATOM     17  C   UNL     1       4.342   0.110   0.064  1.00  0.00     0.059 A 
ATOM     18  C   UNL     1       2.988   0.961   1.886  1.00  0.00     0.022 A 
ATOM     19  Cl  UNL     1       5.905  -0.264  -0.651  1.00  0.00    -0.083 Cl
ATOM     20  C   UNL     1       4.246   0.672   1.348  1.00  0.00     0.059 A 
ATOM     21  Cl  UNL     1       5.681   1.024   2.301  1.00  0.00    -0.083 Cl
ENDBRANCH   4  14
TORSDOF 2
