REMARK SMILES O=[N+]([O-])c1ccc(O)c2ncccc12
REMARK SMILES IDX 7 1 9 2 10 3 11 4 12 5 13 6 14 7 4 8 5 9 6 10 8 11 2 13 3 14
REMARK SMILES IDX 1 15
REMARK H PARENT 8 12
REMARK Flexibility Score: inf
ROOT
ATOM      1  C   UNL     1      -1.143   1.601  -0.030  1.00  0.00     0.142 A 
ATOM      2  C   UNL     1      -0.999   0.203   0.021  1.00  0.00     0.119 A 
ATOM      3  N   UNL     1      -2.101  -0.594   0.078  1.00  0.00    -0.252 NA
ATOM      4  C   UNL     1      -2.012  -1.949   0.101  1.00  0.00     0.112 A 
ATOM      5  C   UNL     1      -0.765  -2.568   0.048  1.00  0.00     0.021 A 
ATOM      6  C   UNL     1       0.389  -1.786  -0.011  1.00  0.00     0.019 A 
ATOM      7  C   UNL     1       0.295  -0.381  -0.003  1.00  0.00     0.082 A 
ATOM      8  C   UNL     1       1.438   0.456  -0.055  1.00  0.00     0.279 A 
ATOM      9  C   UNL     1       1.265   1.848  -0.129  1.00  0.00     0.090 A 
ATOM     10  C   UNL     1      -0.011   2.411  -0.113  1.00  0.00     0.055 A 
ENDROOT
BRANCH   1  11
ATOM     11  O   UNL     1      -2.402   2.204  -0.006  1.00  0.00    -0.506 OA
ATOM     12  H   UNL     1      -3.259   1.669   0.052  1.00  0.00     0.293 HD
ENDBRANCH   1  11
BRANCH   8  13
ATOM     13  N   UNL     1       2.771  -0.079  -0.008  1.00  0.00     0.063 N 
ATOM     14  O   UNL     1       3.116  -0.982   0.971  1.00  0.00    -0.258 OA
ATOM     15  O   UNL     1       3.676   0.440  -0.694  1.00  0.00    -0.258 OA
ENDBRANCH   8  13
TORSDOF 2
