REMARK SMILES CCC1(c2ccccc2)CCC(=O)NC1=O
REMARK SMILES IDX 3 1 10 2 11 3 12 4 13 5 14 6 15 7 16 8 2 10 1 11 4 12 5 13
REMARK SMILES IDX 9 14 6 15 8 16 7 17
REMARK H PARENT 14 9
REMARK Flexibility Score: inf
ROOT
ATOM      1  C   UNL     1      -0.471   0.017   0.094  1.00  0.00     0.075 C 
ATOM      2  C   UNL     1      -0.642  -0.992   1.267  1.00  0.00     0.031 C 
ATOM      3  C   UNL     1      -2.104  -1.305   1.611  1.00  0.00     0.102 C 
ATOM      4  C   UNL     1      -2.859  -1.731   0.391  1.00  0.00     0.226 C 
ATOM      5  O   UNL     1      -3.886  -2.450   0.513  1.00  0.00    -0.275 OA
ATOM      6  N   UNL     1      -2.455  -1.286  -0.907  1.00  0.00    -0.296 N 
ATOM      7  C   UNL     1      -1.305  -0.453  -1.096  1.00  0.00     0.237 C 
ATOM      8  O   UNL     1      -1.029  -0.052  -2.260  1.00  0.00    -0.274 OA
ATOM      9  H   UNL     1      -3.015  -1.577  -1.740  1.00  0.00     0.172 HD
ENDROOT
BRANCH   1  10
ATOM     10  C   UNL     1      -1.018   1.419   0.524  1.00  0.00     0.018 C 
ATOM     11  C   UNL     1      -0.776   2.542  -0.494  1.00  0.00     0.005 C 
ENDBRANCH   1  10
BRANCH   1  12
ATOM     12  C   UNL     1       1.038   0.034  -0.240  1.00  0.00    -0.032 A 
ATOM     13  C   UNL     1       1.938   0.866   0.468  1.00  0.00     0.005 A 
ATOM     14  C   UNL     1       1.589  -0.914  -1.135  1.00  0.00     0.005 A 
ATOM     15  C   UNL     1       3.311   0.821   0.211  1.00  0.00     0.000 A 
ATOM     16  C   UNL     1       2.963  -0.954  -1.385  1.00  0.00     0.000 A 
ATOM     17  C   UNL     1       3.822  -0.080  -0.722  1.00  0.00     0.000 A 
ENDBRANCH   1  12
TORSDOF 2
