REMARK SMILES Nc1nc(F)nc2c1ncn2[C@@H]1O[C@H](CO)[C@@H](O)[C@@H]1O
REMARK SMILES IDX 12 1 13 2 14 3 17 4 19 5 11 6 2 7 3 8 8 9 4 10 7 11 9 12
REMARK SMILES IDX 5 13 6 14 10 15 1 16 20 19 15 21 16 22 18 24
REMARK H PARENT 1 17 1 18 20 20 16 23 18 25
REMARK Flexibility Score: inf
ROOT
ATOM      1  C   UNL     1      -0.558  -0.220  -0.653  1.00  0.00     0.253 C 
ATOM      2  O   UNL     1      -1.438   0.845  -0.919  1.00  0.00    -0.347 OA
ATOM      3  C   UNL     1      -2.724   0.424  -0.517  1.00  0.00     0.178 C 
ATOM      4  C   UNL     1      -2.592  -0.782   0.434  1.00  0.00     0.179 C 
ATOM      5  C   UNL     1      -1.095  -0.979   0.555  1.00  0.00     0.195 C 
ENDROOT
BRANCH   1   6
ATOM      6  N   UNL     1       0.802   0.277  -0.426  1.00  0.00    -0.285 N 
ATOM      7  C   UNL     1       4.275  -0.119  -0.142  1.00  0.00     0.158 A 
ATOM      8  N   UNL     1       4.446  -1.426  -0.504  1.00  0.00    -0.183 NA
ATOM      9  C   UNL     1       2.980   0.386  -0.148  1.00  0.00     0.150 A 
ATOM     10  C   UNL     1       3.381  -2.216  -0.858  1.00  0.00     0.312 A 
ATOM     11  C   UNL     1       1.947  -0.411  -0.504  1.00  0.00     0.170 A 
ATOM     12  N   UNL     1       2.537   1.614   0.182  1.00  0.00    -0.231 NA
ATOM     13  F   UNL     1       3.589  -3.508  -1.208  1.00  0.00    -0.161 F 
ATOM     14  N   UNL     1       2.112  -1.708  -0.858  1.00  0.00    -0.182 NA
ATOM     15  C   UNL     1       1.192   1.507   0.003  1.00  0.00     0.204 A 
BRANCH   7  16
ATOM     16  N   UNL     1       5.395   0.684   0.230  1.00  0.00    -0.382 N 
ATOM     17  H   UNL     1       5.271   1.683   0.509  1.00  0.00     0.158 HD
ATOM     18  H   UNL     1       6.356   0.278   0.228  1.00  0.00     0.158 HD
ENDBRANCH   7  16
ENDBRANCH   1   6
BRANCH   5  19
ATOM     19  O   UNL     1      -0.609  -0.457   1.772  1.00  0.00    -0.386 OA
ATOM     20  H   UNL     1      -0.865   0.501   1.823  1.00  0.00     0.211 HD
ENDBRANCH   5  19
BRANCH   3  21
ATOM     21  C   UNL     1      -3.453   1.602   0.143  1.00  0.00     0.191 C 
BRANCH  21  22
ATOM     22  O   UNL     1      -4.765   1.247   0.487  1.00  0.00    -0.394 OA
ATOM     23  H   UNL     1      -5.285   1.226  -0.359  1.00  0.00     0.210 HD
ENDBRANCH  21  22
ENDBRANCH   3  21
BRANCH   4  24
ATOM     24  O   UNL     1      -3.176  -1.924  -0.138  1.00  0.00    -0.387 OA
ATOM     25  H   UNL     1      -4.158  -1.815  -0.043  1.00  0.00     0.211 HD
ENDBRANCH   4  24
TORSDOF 6
