REMARK SMILES CCC(=O)O[C@]1(C(=O)CCl)[C@@H](C)C[C@H]2[C@@H]3CCC4=CC(=O)C=C[C@]4(C)[C@@]3(F)[C@@H](O)C[C@@]21C
REMARK SMILES IDX 14 1 13 2 11 3 12 4 6 5 31 6 32 7 30 8 28 9 26 10 27 11
REMARK SMILES IDX 15 12 16 13 17 14 18 15 19 16 20 17 21 18 22 19 23 20 24 21
REMARK SMILES IDX 25 22 5 23 3 24 4 25 2 26 1 27 7 28 8 29 9 30 10 31 29 32
REMARK H PARENT 29 33
REMARK Flexibility Score: inf
ROOT
ATOM      1  C   UNL     1       0.048  -0.381  -0.835  1.00  0.00     0.006 C 
ATOM      2  C   UNL     1       0.667  -1.252  -1.913  1.00  0.00     0.012 C 
ATOM      3  C   UNL     1       2.115  -1.491  -1.425  1.00  0.00     0.039 C 
ATOM      4  C   UNL     1       2.583  -2.931  -1.735  1.00  0.00     0.012 C 
ATOM      5  C   UNL     1       2.176  -0.999   0.074  1.00  0.00     0.179 C 
ATOM      6  C   UNL     1       0.650  -0.921   0.473  1.00  0.00     0.021 C 
ATOM      7  C   UNL     1       0.102  -2.349   0.844  1.00  0.00     0.016 C 
ATOM      8  C   UNL     1       0.285   0.083   1.603  1.00  0.00     0.047 C 
ATOM      9  C   UNL     1      -1.249   0.314   1.721  1.00  0.00     0.154 C 
ATOM     10  C   UNL     1      -1.899   0.742   0.360  1.00  0.00     0.152 C 
ATOM     11  F   UNL     1      -1.358   1.986   0.063  1.00  0.00    -0.239 F 
ATOM     12  C   UNL     1      -1.493  -0.230  -0.812  1.00  0.00     0.035 C 
ATOM     13  C   UNL     1      -2.001   0.323  -2.162  1.00  0.00     0.012 C 
ATOM     14  C   UNL     1      -3.522   0.470  -2.150  1.00  0.00     0.032 C 
ATOM     15  C   UNL     1      -3.928   1.356  -0.998  1.00  0.00    -0.053 C 
ATOM     16  C   UNL     1      -4.620   2.478  -1.245  1.00  0.00     0.052 C 
ATOM     17  C   UNL     1      -4.933   3.413  -0.167  1.00  0.00     0.178 C 
ATOM     18  O   UNL     1      -5.554   4.477  -0.417  1.00  0.00    -0.290 OA
ATOM     19  C   UNL     1      -4.487   3.127   1.195  1.00  0.00     0.048 C 
ATOM     20  C   UNL     1      -3.796   2.020   1.464  1.00  0.00    -0.009 C 
ATOM     21  C   UNL     1      -3.468   0.952   0.415  1.00  0.00     0.044 C 
ATOM     22  C   UNL     1      -4.269  -0.312   0.823  1.00  0.00     0.024 C 
ENDROOT
BRANCH   5  23
ATOM     23  O   UNL     1       2.739   0.325   0.011  1.00  0.00    -0.450 OA
BRANCH  23  24
ATOM     24  C   UNL     1       3.437   0.997   1.028  1.00  0.00     0.306 C 
ATOM     25  O   UNL     1       3.161   0.801   2.242  1.00  0.00    -0.252 OA
BRANCH  24  26
ATOM     26  C   UNL     1       4.467   2.021   0.675  1.00  0.00     0.119 C 
ATOM     27  C   UNL     1       5.059   1.777  -0.714  1.00  0.00     0.016 C 
ENDBRANCH  24  26
ENDBRANCH  23  24
ENDBRANCH   5  23
BRANCH   5  28
ATOM     28  C   UNL     1       3.073  -1.867   0.976  1.00  0.00     0.191 C 
ATOM     29  O   UNL     1       2.679  -2.247   2.071  1.00  0.00    -0.294 OA
BRANCH  28  30
ATOM     30  C   UNL     1       4.515  -2.110   0.620  1.00  0.00     0.189 C 
ATOM     31  Cl  UNL     1       5.598  -1.645   1.965  1.00  0.00    -0.118 Cl
ENDBRANCH  28  30
ENDBRANCH   5  28
BRANCH   9  32
ATOM     32  O   UNL     1      -1.872  -0.823   2.251  1.00  0.00    -0.390 OA
ATOM     33  H   UNL     1      -1.646  -0.864   3.220  1.00  0.00     0.211 HD
ENDBRANCH   9  32
TORSDOF 6
