REMARK SMILES O=C1NC(=S)NC(=O)C1Cc1ccc(-c2ccccc2C(F)(F)F)o1
REMARK SMILES IDX 14 1 13 2 12 3 11 4 25 5 15 6 20 7 19 8 18 9 16 10 17 11
REMARK SMILES IDX 21 12 22 13 23 14 24 15 10 16 9 17 2 18 7 19 1 20 3 21 6 22
REMARK SMILES IDX 8 23 4 24 5 27
REMARK H PARENT 3 25 6 26
REMARK Flexibility Score: inf
ROOT
ATOM      1  C   UNL     1      -1.368  -0.533   0.361  1.00  0.00     0.134 A 
ATOM      2  C   UNL     1      -1.265  -1.270   1.529  1.00  0.00     0.051 A 
ATOM      3  C   UNL     1      -0.006  -1.830   1.511  1.00  0.00     0.046 A 
ATOM      4  C   UNL     1       0.573  -1.410   0.330  1.00  0.00     0.106 A 
ATOM      5  O   UNL     1      -0.260  -0.644  -0.335  1.00  0.00    -0.461 OA
ENDROOT
BRANCH   1   6
ATOM      6  C   UNL     1      -2.543   0.235  -0.098  1.00  0.00     0.029 A 
ATOM      7  C   UNL     1      -3.216   1.193   0.713  1.00  0.00     0.066 A 
ATOM      8  C   UNL     1      -4.381   1.804   0.206  1.00  0.00     0.014 A 
ATOM      9  C   UNL     1      -4.829   1.533  -1.087  1.00  0.00     0.001 A 
ATOM     10  C   UNL     1      -2.994  -0.002  -1.407  1.00  0.00     0.012 A 
ATOM     11  C   UNL     1      -4.130   0.642  -1.897  1.00  0.00     0.001 A 
BRANCH   7  12
ATOM     12  C   UNL     1      -2.739   1.571   2.103  1.00  0.00     0.417 C 
ATOM     13  F   UNL     1      -1.357   1.605   2.160  1.00  0.00    -0.166 F 
ATOM     14  F   UNL     1      -3.218   0.656   3.021  1.00  0.00    -0.166 F 
ATOM     15  F   UNL     1      -3.198   2.828   2.459  1.00  0.00    -0.166 F 
ENDBRANCH   7  12
ENDBRANCH   1   6
BRANCH   4  16
ATOM     16  C   UNL     1       1.961  -1.735  -0.131  1.00  0.00     0.099 C 
BRANCH  16  17
ATOM     17  C   UNL     1       3.011  -0.840   0.552  1.00  0.00     0.176 C 
ATOM     18  C   UNL     1       4.393  -1.322   0.187  1.00  0.00     0.239 C 
ATOM     19  C   UNL     1       2.825   0.606   0.154  1.00  0.00     0.239 C 
ATOM     20  O   UNL     1       4.905  -2.281   0.824  1.00  0.00    -0.274 OA
ATOM     21  N   UNL     1       5.100  -0.753  -0.921  1.00  0.00    -0.302 N 
ATOM     22  N   UNL     1       3.532   1.156  -0.962  1.00  0.00    -0.302 N 
ATOM     23  O   UNL     1       1.998   1.323   0.779  1.00  0.00    -0.274 OA
ATOM     24  C   UNL     1       4.638   0.453  -1.532  1.00  0.00     0.179 C 
ATOM     25  H   UNL     1       5.983  -1.203  -1.253  1.00  0.00     0.172 HD
ATOM     26  H   UNL     1       3.270   2.101  -1.322  1.00  0.00     0.172 HD
ATOM     27  S   UNL     1       5.436   1.081  -2.815  1.00  0.00    -0.040 S 
ENDBRANCH  16  17
ENDBRANCH   4  16
TORSDOF 4
