REMARK SMILES CNNCc1ccc(C(=O)NC(C)C)cc1
REMARK SMILES IDX 5 1 6 2 7 3 8 4 15 5 16 6 4 7 3 8 2 10 1 11 9 13 10 14 11 15
REMARK SMILES IDX 12 17 13 18 14 19
REMARK H PARENT 3 9 2 12 11 16
REMARK Flexibility Score: inf
ROOT
ATOM      1  C   UNL     1      -2.236  -1.101  -0.159  1.00  0.00    -0.033 A 
ATOM      2  C   UNL     1      -1.304  -1.133   0.888  1.00  0.00     0.006 A 
ATOM      3  C   UNL     1      -0.017  -0.620   0.706  1.00  0.00     0.014 A 
ATOM      4  C   UNL     1       0.361  -0.061  -0.529  1.00  0.00     0.039 A 
ATOM      5  C   UNL     1      -0.585  -0.009  -1.568  1.00  0.00     0.014 A 
ATOM      6  C   UNL     1      -1.872  -0.524  -1.385  1.00  0.00     0.006 A 
ENDROOT
BRANCH   1   7
ATOM      7  C   UNL     1      -3.633  -1.616   0.057  1.00  0.00     0.134 C 
BRANCH   7   8
ATOM      8  N   UNL     1      -4.423  -0.642   0.813  1.00  0.00    -0.254 NA
ATOM      9  H   UNL     1      -5.308  -1.116   1.114  1.00  0.00     0.142 HD
BRANCH   8  10
ATOM     10  N   UNL     1      -4.744   0.432  -0.046  1.00  0.00    -0.261 NA
ATOM     11  C   UNL     1      -4.305   1.666   0.599  1.00  0.00     0.120 C 
ATOM     12  H   UNL     1      -5.785   0.487  -0.162  1.00  0.00     0.141 HD
ENDBRANCH   8  10
ENDBRANCH   7   8
ENDBRANCH   1   7
BRANCH   4  13
ATOM     13  C   UNL     1       1.721   0.493  -0.734  1.00  0.00     0.251 C 
ATOM     14  O   UNL     1       1.907   1.353  -1.639  1.00  0.00    -0.269 OA
ATOM     15  N   UNL     1       2.830   0.053   0.068  1.00  0.00    -0.350 N 
ATOM     16  H   UNL     1       2.737  -0.835   0.610  1.00  0.00     0.164 HD
BRANCH  15  17
ATOM     17  C   UNL     1       4.163   0.649  -0.047  1.00  0.00     0.076 C 
ATOM     18  C   UNL     1       4.982  -0.110  -1.093  1.00  0.00     0.030 C 
ATOM     19  C   UNL     1       4.864   0.624   1.314  1.00  0.00     0.030 C 
ENDBRANCH  15  17
ENDBRANCH   4  13
TORSDOF 5
