REMARK SMILES C=CCOc1ccccc1OCC(O)CNC(C)C
REMARK SMILES IDX 12 1 13 2 15 3 16 4 17 6 18 7 19 8 14 9 11 11 10 12 9 13
REMARK SMILES IDX 5 14 8 15 6 16 7 17 4 18 3 19 2 20 1 21
REMARK H PARENT 16 5 14 10
REMARK Flexibility Score: inf
ROOT
ATOM      1  C   UNL     1       0.592   1.248  -0.288  1.00  0.00     0.262 C 
ENDROOT
BRANCH   1   2
ATOM      2  C   UNL     1       1.652   0.208  -0.674  1.00  0.00     0.165 C 
BRANCH   2   3
ATOM      3  C   UNL     1       3.072   0.820  -0.622  1.00  0.00     0.116 C 
BRANCH   3   4
ATOM      4  N   UNL     1       4.128  -0.182  -0.856  1.00  0.00    -0.312 NA
ATOM      5  H   UNL     1       3.822  -0.836  -1.614  1.00  0.00     0.123 HD
BRANCH   4   6
ATOM      6  C   UNL     1       4.500  -0.919   0.371  1.00  0.00     0.047 C 
ATOM      7  C   UNL     1       4.974  -2.339   0.027  1.00  0.00     0.024 C 
ATOM      8  C   UNL     1       5.617  -0.167   1.102  1.00  0.00     0.024 C 
ENDBRANCH   4   6
ENDBRANCH   3   4
ENDBRANCH   2   3
BRANCH   2   9
ATOM      9  O   UNL     1       1.378  -0.321  -1.948  1.00  0.00    -0.388 OA
ATOM     10  H   UNL     1       1.425   0.426  -2.601  1.00  0.00     0.211 HD
ENDBRANCH   2   9
ENDBRANCH   1   2
BRANCH   1  11
ATOM     11  O   UNL     1      -0.702   0.649  -0.331  1.00  0.00    -0.487 OA
BRANCH  11  12
ATOM     12  C   UNL     1      -1.899   1.317  -0.032  1.00  0.00     0.161 A 
ATOM     13  C   UNL     1      -1.924   2.673   0.350  1.00  0.00     0.050 A 
ATOM     14  C   UNL     1      -3.103   0.598  -0.120  1.00  0.00     0.161 A 
ATOM     15  C   UNL     1      -3.137   3.302   0.640  1.00  0.00     0.004 A 
ATOM     16  C   UNL     1      -4.321   1.245   0.175  1.00  0.00     0.050 A 
ATOM     17  C   UNL     1      -4.332   2.589   0.553  1.00  0.00     0.004 A 
BRANCH  14  18
ATOM     18  O   UNL     1      -3.044  -0.753  -0.504  1.00  0.00    -0.486 OA
BRANCH  18  19
ATOM     19  C   UNL     1      -4.164  -1.631  -0.611  1.00  0.00     0.257 C 
BRANCH  19  20
ATOM     20  C   UNL     1      -4.694  -1.985   0.749  1.00  0.00     0.006 C 
ATOM     21  C   UNL     1      -5.753  -2.786   0.888  1.00  0.00     0.007 C 
ENDBRANCH  19  20
ENDBRANCH  18  19
ENDBRANCH  14  18
ENDBRANCH  11  12
ENDBRANCH   1  11
TORSDOF 10
