REMARK SMILES O=C(Nc1c(Cl)cncc1Cl)c1ccc(OC(F)F)c(OCC2CC2)c1
REMARK SMILES IDX 15 1 20 2 26 3 12 4 13 5 14 6 16 7 17 8 18 9 19 10 21 11
REMARK SMILES IDX 22 12 23 13 24 14 25 15 2 16 1 17 3 18 4 20 5 21 10 22 6 23
REMARK SMILES IDX 7 24 9 25 11 26 8 27
REMARK H PARENT 3 19
REMARK Flexibility Score: inf
ROOT
ATOM      1  C   UNL     1      -1.255  -1.880   1.463  1.00  0.00     0.168 A 
ATOM      2  C   UNL     1      -1.654  -0.671   0.873  1.00  0.00     0.162 A 
ATOM      3  C   UNL     1      -0.681   0.197   0.340  1.00  0.00     0.064 A 
ATOM      4  C   UNL     1       0.683  -0.139   0.377  1.00  0.00     0.044 A 
ATOM      5  C   UNL     1       1.069  -1.349   0.976  1.00  0.00     0.018 A 
ATOM      6  C   UNL     1       0.111  -2.211   1.513  1.00  0.00     0.051 A 
ENDROOT
BRANCH   1   7
ATOM      7  O   UNL     1      -2.248  -2.722   1.990  1.00  0.00    -0.431 OA
BRANCH   7   8
ATOM      8  C   UNL     1      -2.005  -3.992   2.590  1.00  0.00     0.542 C 
ATOM      9  F   UNL     1      -3.197  -4.498   3.073  1.00  0.00    -0.167 F 
ATOM     10  F   UNL     1      -1.493  -4.868   1.651  1.00  0.00    -0.167 F 
ENDBRANCH   7   8
ENDBRANCH   1   7
BRANCH   2  11
ATOM     11  O   UNL     1      -3.027  -0.372   0.845  1.00  0.00    -0.489 OA
BRANCH  11  12
ATOM     12  C   UNL     1      -3.622   0.750   0.194  1.00  0.00     0.233 C 
BRANCH  12  13
ATOM     13  C   UNL     1      -3.570   0.570  -1.330  1.00  0.00     0.027 C 
ATOM     14  C   UNL     1      -4.679   1.263  -2.106  1.00  0.00     0.007 C 
ATOM     15  C   UNL     1      -4.705  -0.248  -1.925  1.00  0.00     0.007 C 
ENDBRANCH  12  13
ENDBRANCH  11  12
ENDBRANCH   2  11
BRANCH   4  16
ATOM     16  C   UNL     1       1.696   0.786  -0.187  1.00  0.00     0.255 C 
ATOM     17  O   UNL     1       1.404   2.003  -0.349  1.00  0.00    -0.269 OA
ATOM     18  N   UNL     1       2.995   0.312  -0.577  1.00  0.00    -0.319 N 
ATOM     19  H   UNL     1       3.112  -0.700  -0.805  1.00  0.00     0.170 HD
BRANCH  18  20
ATOM     20  C   UNL     1       4.063   1.207  -0.921  1.00  0.00     0.082 A 
ATOM     21  C   UNL     1       4.658   1.134  -2.194  1.00  0.00     0.084 A 
ATOM     22  C   UNL     1       4.554   2.141   0.012  1.00  0.00     0.084 A 
ATOM     23  Cl  UNL     1       4.093  -0.009  -3.405  1.00  0.00    -0.080 Cl
ATOM     24  C   UNL     1       5.700   2.008  -2.515  1.00  0.00     0.133 A 
ATOM     25  C   UNL     1       5.600   2.992  -0.359  1.00  0.00     0.133 A 
ATOM     26  Cl  UNL     1       3.937   2.223   1.657  1.00  0.00    -0.080 Cl
ATOM     27  N   UNL     1       6.143   2.910  -1.601  1.00  0.00    -0.261 NA
ENDBRANCH  18  20
ENDBRANCH   4  16
TORSDOF 7
