REMARK SMILES C[N+]1(CCCCC[N+]2(C)CCCC2)CCCC1
REMARK SMILES IDX 5 1 4 2 3 3 2 4 1 5 14 6 17 7 15 8 16 9 6 10 7 11 8 12 9 13
REMARK SMILES IDX 10 14 13 15 11 16 12 17
REMARK H PARENT
REMARK Flexibility Score: inf
ROOT
ATOM      1  C   UNL     1       0.361   0.145  -0.560  1.00  0.00     0.012 C 
ENDROOT
BRANCH   1   2
ATOM      2  C   UNL     1       1.273  -0.760  -1.400  1.00  0.00     0.062 C 
BRANCH   2   3
ATOM      3  C   UNL     1       2.760  -0.321  -1.428  1.00  0.00     0.263 C 
BRANCH   3   4
ATOM      4  N   UNL     1       3.537  -0.463  -0.154  1.00  0.00    -0.326 N 
ATOM      5  C   UNL     1       3.364  -1.815   0.441  1.00  0.00     0.334 C 
ATOM      6  C   UNL     1       3.212   0.587   0.843  1.00  0.00     0.263 C 
ATOM      7  C   UNL     1       4.975  -0.246  -0.447  1.00  0.00     0.263 C 
ATOM      8  C   UNL     1       4.497   0.965   1.578  1.00  0.00     0.067 C 
ATOM      9  C   UNL     1       5.626   0.312   0.807  1.00  0.00     0.067 C 
ENDBRANCH   3   4
ENDBRANCH   2   3
ENDBRANCH   1   2
BRANCH   1  10
ATOM     10  C   UNL     1      -1.119  -0.126  -0.863  1.00  0.00     0.062 C 
BRANCH  10  11
ATOM     11  C   UNL     1      -2.032   0.778  -0.003  1.00  0.00     0.263 C 
BRANCH  11  12
ATOM     12  N   UNL     1      -3.488   0.460  -0.114  1.00  0.00    -0.326 N 
ATOM     13  C   UNL     1      -3.961   0.610  -1.516  1.00  0.00     0.334 C 
ATOM     14  C   UNL     1      -4.266   1.367   0.763  1.00  0.00     0.263 C 
ATOM     15  C   UNL     1      -3.804  -0.893   0.399  1.00  0.00     0.263 C 
ATOM     16  C   UNL     1      -5.517   0.618   1.209  1.00  0.00     0.067 C 
ATOM     17  C   UNL     1      -5.217  -0.852   0.969  1.00  0.00     0.067 C 
ENDBRANCH  11  12
ENDBRANCH  10  11
ENDBRANCH   1  10
TORSDOF 6
