REMARK SMILES CS(=O)(=O)CCNCc1ccc(-c2ccc3ncnc(Nc4ccc(OCc5cccc(F)c5)c(Cl)c4)c3c2)o1
REMARK SMILES IDX 13 1 39 2 38 3 16 4 15 5 14 6 17 7 18 8 19 9 20 10 12 11
REMARK SMILES IDX 9 12 10 13 40 14 11 15 8 16 7 17 6 19 5 20 2 21 1 22 3 23
REMARK SMILES IDX 4 24 21 25 22 27 37 28 23 29 35 30 24 31 36 32 25 33 26 34
REMARK SMILES IDX 27 35 28 36 34 37 29 38 32 39 30 40 33 41 31 42
REMARK H PARENT 7 18 21 26
REMARK Flexibility Score: inf
ROOT
ATOM      1  C   UNL     1      -2.835  -2.317   0.827  1.00  0.00     0.018 A 
ATOM      2  C   UNL     1      -1.461  -2.140   0.572  1.00  0.00     0.026 A 
ATOM      3  C   UNL     1      -0.510  -2.346   1.591  1.00  0.00     0.044 A 
ATOM      4  C   UNL     1      -0.953  -2.703   2.884  1.00  0.00     0.076 A 
ATOM      5  C   UNL     1      -2.315  -2.879   3.136  1.00  0.00     0.030 A 
ATOM      6  C   UNL     1      -3.248  -2.693   2.115  1.00  0.00     0.014 A 
ATOM      7  N   UNL     1      -0.055  -2.870   3.889  1.00  0.00    -0.236 NA
ATOM      8  C   UNL     1       1.273  -2.703   3.674  1.00  0.00     0.224 A 
ATOM      9  N   UNL     1       1.727  -2.373   2.439  1.00  0.00    -0.219 NA
ATOM     10  C   UNL     1       0.879  -2.188   1.390  1.00  0.00     0.141 A 
ENDROOT
BRANCH   1  11
ATOM     11  C   UNL     1      -3.852  -2.114  -0.232  1.00  0.00     0.134 A 
ATOM     12  C   UNL     1      -5.767  -2.076  -1.174  1.00  0.00     0.118 A 
ATOM     13  C   UNL     1      -4.877  -1.624  -2.127  1.00  0.00     0.047 A 
ATOM     14  O   UNL     1      -5.133  -2.358  -0.061  1.00  0.00    -0.460 OA
ATOM     15  C   UNL     1      -3.639  -1.648  -1.522  1.00  0.00     0.051 A 
BRANCH  12  16
ATOM     16  C   UNL     1      -7.248  -2.202  -1.348  1.00  0.00     0.157 C 
BRANCH  16  17
ATOM     17  N   UNL     1      -7.956  -1.215  -0.520  1.00  0.00    -0.309 NA
ATOM     18  H   UNL     1      -8.974  -1.459  -0.554  1.00  0.00     0.123 HD
BRANCH  17  19
ATOM     19  C   UNL     1      -7.795   0.162  -1.020  1.00  0.00     0.097 C 
BRANCH  19  20
ATOM     20  C   UNL     1      -6.885   0.948  -0.077  1.00  0.00     0.152 C 
BRANCH  20  21
ATOM     21  S   UNL     1      -6.630   2.613  -0.670  1.00  0.00     0.148 S 
ATOM     22  C   UNL     1      -5.610   3.496   0.488  1.00  0.00     0.158 C 
ATOM     23  O   UNL     1      -7.952   3.315  -0.803  1.00  0.00    -0.229 OA
ATOM     24  O   UNL     1      -5.946   2.576  -2.007  1.00  0.00    -0.229 OA
ENDBRANCH  20  21
ENDBRANCH  19  20
ENDBRANCH  17  19
ENDBRANCH  16  17
ENDBRANCH  12  16
ENDBRANCH   1  11
BRANCH  10  25
ATOM     25  N   UNL     1       1.424  -1.901   0.090  1.00  0.00    -0.340 N 
ATOM     26  H   UNL     1       0.992  -2.363  -0.741  1.00  0.00     0.168 HD
BRANCH  25  27
ATOM     27  C   UNL     1       2.644  -1.166  -0.111  1.00  0.00     0.041 A 
ATOM     28  C   UNL     1       3.414  -1.406  -1.258  1.00  0.00     0.050 A 
ATOM     29  C   UNL     1       3.057  -0.172   0.793  1.00  0.00     0.030 A 
ATOM     30  C   UNL     1       4.594  -0.690  -1.486  1.00  0.00     0.085 A 
ATOM     31  C   UNL     1       4.235   0.544   0.568  1.00  0.00     0.050 A 
ATOM     32  Cl  UNL     1       5.539  -1.030  -2.928  1.00  0.00    -0.080 Cl
ATOM     33  C   UNL     1       5.017   0.289  -0.574  1.00  0.00     0.138 A 
BRANCH  33  34
ATOM     34  O   UNL     1       6.206   0.986  -0.837  1.00  0.00    -0.487 OA
BRANCH  34  35
ATOM     35  C   UNL     1       6.752   2.001   0.001  1.00  0.00     0.265 C 
BRANCH  35  36
ATOM     36  C   UNL     1       8.025   2.508  -0.610  1.00  0.00    -0.008 A 
ATOM     37  C   UNL     1       7.995   3.568  -1.531  1.00  0.00     0.046 A 
ATOM     38  C   UNL     1       9.247   1.878  -0.322  1.00  0.00     0.007 A 
ATOM     39  C   UNL     1       9.178   4.011  -2.133  1.00  0.00     0.123 A 
ATOM     40  C   UNL     1      10.427   2.324  -0.926  1.00  0.00     0.003 A 
ATOM     41  F   UNL     1       9.145   5.038  -3.016  1.00  0.00    -0.207 F 
ATOM     42  C   UNL     1      10.393   3.390  -1.828  1.00  0.00     0.039 A 
ENDBRANCH  35  36
ENDBRANCH  34  35
ENDBRANCH  33  34
ENDBRANCH  25  27
ENDBRANCH  10  25
TORSDOF 11
