REMARK SMILES CC(C)C(=O)OCC(=O)[C@@]12O[C@H](C3CCCCC3)O[C@@H]1C[C@H]1[C@@H]3CCC4=CC(=O)C=C[C@]4(C)[C@H]3[C@@H](O)C[C@@]12C
REMARK SMILES IDX 7 1 8 2 9 3 10 4 20 5 21 6 19 7 22 8 38 9 11 10 12 11 23 12
REMARK SMILES IDX 37 13 39 14 24 15 34 16 35 17 25 18 32 19 26 20 31 21 33 22
REMARK SMILES IDX 27 23 30 24 28 25 29 26 13 27 14 28 18 29 15 30 17 31 16 32
REMARK SMILES IDX 36 33 6 35 4 36 5 37 2 38 1 39 3 40
REMARK H PARENT 36 34
REMARK Flexibility Score: inf
ROOT
ATOM      1  C   UNL     1      -3.048  -2.328   1.445  1.00  0.00     0.311 C 
ENDROOT
BRANCH   1   2
ATOM      2  C   UNL     1      -2.067  -1.899   0.378  1.00  0.00     0.205 C 
ATOM      3  O   UNL     1      -1.953  -2.581  -0.630  1.00  0.00    -0.292 OA
BRANCH   2   4
ATOM      4  C   UNL     1      -1.201  -0.644   0.504  1.00  0.00     0.165 C 
ATOM      5  C   UNL     1      -1.425   0.210   1.756  1.00  0.00     0.162 C 
ATOM      6  C   UNL     1      -0.046   0.754   2.194  1.00  0.00     0.040 C 
ATOM      7  O   UNL     1      -2.260   1.261   1.381  1.00  0.00    -0.346 OA
ATOM      8  C   UNL     1       0.879   0.401   1.036  1.00  0.00     0.005 C 
ATOM      9  C   UNL     1       0.331  -0.944   0.523  1.00  0.00     0.012 C 
ATOM     10  O   UNL     1      -1.528   0.201  -0.561  1.00  0.00    -0.335 OA
ATOM     11  C   UNL     1      -2.364   1.204  -0.026  1.00  0.00     0.255 C 
ATOM     12  C   UNL     1       2.411   0.387   1.243  1.00  0.00    -0.000 C 
ATOM     13  C   UNL     1       0.974  -1.235  -0.859  1.00  0.00     0.042 C 
ATOM     14  C   UNL     1       0.599  -2.144   1.497  1.00  0.00     0.015 C 
ATOM     15  C   UNL     1       2.954   1.686   1.916  1.00  0.00     0.009 C 
ATOM     16  C   UNL     1       3.078   0.104  -0.146  1.00  0.00     0.035 C 
ATOM     17  C   UNL     1       2.531  -1.196  -0.824  1.00  0.00     0.119 C 
ATOM     18  C   UNL     1       3.876   2.553   1.042  1.00  0.00     0.032 C 
ATOM     19  C   UNL     1       4.639   0.279  -0.077  1.00  0.00     0.013 C 
ATOM     20  C   UNL     1       4.893   1.760   0.248  1.00  0.00    -0.056 C 
ATOM     21  C   UNL     1       5.305  -0.128  -1.392  1.00  0.00    -0.012 C 
ATOM     22  C   UNL     1       5.305  -0.576   1.030  1.00  0.00     0.021 C 
ATOM     23  C   UNL     1       5.945   2.418  -0.267  1.00  0.00     0.052 C 
ATOM     24  C   UNL     1       6.355   0.528  -1.891  1.00  0.00     0.048 C 
ATOM     25  C   UNL     1       6.785   1.792  -1.290  1.00  0.00     0.178 C 
ATOM     26  O   UNL     1       7.831   2.366  -1.694  1.00  0.00    -0.290 OA
BRANCH  11  27
ATOM     27  C   UNL     1      -1.990   2.573  -0.630  1.00  0.00     0.046 C 
ATOM     28  C   UNL     1      -2.812   3.718   0.016  1.00  0.00     0.009 C 
ATOM     29  C   UNL     1      -2.163   2.579  -2.162  1.00  0.00     0.009 C 
ATOM     30  C   UNL     1      -2.919   4.978  -0.868  1.00  0.00     0.000 C 
ATOM     31  C   UNL     1      -1.657   3.895  -2.789  1.00  0.00     0.000 C 
ATOM     32  C   UNL     1      -1.739   5.102  -1.836  1.00  0.00     0.000 C 
ENDBRANCH  11  27
BRANCH  17  33
ATOM     33  O   UNL     1       3.051  -2.342  -0.205  1.00  0.00    -0.393 OA
ATOM     34  H   UNL     1       2.897  -3.101  -0.827  1.00  0.00     0.210 HD
ENDBRANCH  17  33
ENDBRANCH   2   4
ENDBRANCH   1   2
BRANCH   1  35
ATOM     35  O   UNL     1      -3.755  -3.507   1.062  1.00  0.00    -0.457 OA
BRANCH  35  36
ATOM     36  C   UNL     1      -4.781  -3.517   0.110  1.00  0.00     0.308 C 
ATOM     37  O   UNL     1      -5.188  -2.442  -0.411  1.00  0.00    -0.252 OA
BRANCH  36  38
ATOM     38  C   UNL     1      -5.378  -4.826  -0.321  1.00  0.00     0.093 C 
ATOM     39  C   UNL     1      -5.893  -5.606   0.892  1.00  0.00     0.019 C 
ATOM     40  C   UNL     1      -4.340  -5.643  -1.097  1.00  0.00     0.019 C 
ENDBRANCH  36  38
ENDBRANCH  35  36
ENDBRANCH   1  35
TORSDOF 7
