REMARK SMILES CCC1(CCC(C)C)C(=O)NC(=O)NC1=O
REMARK SMILES IDX 4 1 3 2 9 3 15 4 10 5 11 6 14 7 16 8 12 9 13 12 2 13 1 14
REMARK SMILES IDX 5 15 6 16 7 17 8 18
REMARK H PARENT 11 10 14 11
REMARK Flexibility Score: inf
ROOT
ATOM      1  C   UNL     1       0.212   0.391  -0.488  1.00  0.00     0.027 C 
ENDROOT
BRANCH   1   2
ATOM      2  C   UNL     1      -1.199  -0.125  -0.071  1.00  0.00     0.128 C 
ATOM      3  C   UNL     1      -1.429   0.166   1.411  1.00  0.00     0.243 C 
ATOM      4  C   UNL     1      -2.203   0.641  -0.929  1.00  0.00     0.243 C 
ATOM      5  O   UNL     1      -1.033  -0.652   2.286  1.00  0.00    -0.273 OA
ATOM      6  N   UNL     1      -2.034   1.388   1.840  1.00  0.00    -0.277 N 
ATOM      7  N   UNL     1      -2.848   1.823  -0.445  1.00  0.00    -0.277 N 
ATOM      8  O   UNL     1      -2.399   0.292  -2.125  1.00  0.00    -0.273 OA
ATOM      9  C   UNL     1      -2.725   2.223   0.916  1.00  0.00     0.328 C 
ATOM     10  H   UNL     1      -2.029   1.638   2.855  1.00  0.00     0.174 HD
ATOM     11  H   UNL     1      -3.430   2.396  -1.098  1.00  0.00     0.174 HD
ATOM     12  O   UNL     1      -3.248   3.300   1.308  1.00  0.00    -0.248 OA
BRANCH   2  13
ATOM     13  C   UNL     1      -1.330  -1.657  -0.351  1.00  0.00     0.023 C 
ATOM     14  C   UNL     1      -2.730  -2.221  -0.076  1.00  0.00     0.005 C 
ENDBRANCH   2  13
ENDBRANCH   1   2
BRANCH   1  15
ATOM     15  C   UNL     1       1.407  -0.310   0.196  1.00  0.00     0.004 C 
BRANCH  15  16
ATOM     16  C   UNL     1       2.752   0.403  -0.078  1.00  0.00    -0.017 C 
ATOM     17  C   UNL     1       3.855  -0.200   0.802  1.00  0.00     0.007 C 
ATOM     18  C   UNL     1       3.160   0.317  -1.556  1.00  0.00     0.007 C 
ENDBRANCH  15  16
ENDBRANCH   1  15
TORSDOF 4
