REMARK SMILES C=C1/C(=C\C=C2/CCC[C@]3(C)[C@@H]([C@H](C)CCCC(C)C)CC[C@@H]23)C[C@@H](O)C[C@@H]1O
REMARK SMILES IDX 13 1 14 2 15 3 16 4 17 5 18 6 19 7 20 8 12 9 21 10 10 11
REMARK SMILES IDX 22 12 23 13 9 14 11 15 6 16 8 17 7 18 5 19 4 20 3 21 24 22
REMARK SMILES IDX 2 23 25 24 28 25 1 26 27 27 26 28 29 30
REMARK H PARENT 26 29 29 31
REMARK Flexibility Score: inf
ROOT
ATOM      1  C   UNL     1       2.940  -1.623  -0.527  1.00  0.00    -0.011 C 
ATOM      2  C   UNL     1       3.495  -2.379   0.692  1.00  0.00     0.008 C 
ENDROOT
BRANCH   1   3
ATOM      3  C   UNL     1       4.100  -1.130  -1.452  1.00  0.00     0.003 C 
BRANCH   3   4
ATOM      4  C   UNL     1       5.339  -0.493  -0.782  1.00  0.00     0.001 C 
BRANCH   4   5
ATOM      5  C   UNL     1       5.056   0.852  -0.087  1.00  0.00     0.003 C 
BRANCH   5   6
ATOM      6  C   UNL     1       6.312   1.721   0.164  1.00  0.00    -0.017 C 
ATOM      7  C   UNL     1       7.399   0.970   0.946  1.00  0.00     0.007 C 
ATOM      8  C   UNL     1       6.880   2.319  -1.131  1.00  0.00     0.007 C 
ENDBRANCH   5   6
ENDBRANCH   4   5
ENDBRANCH   3   4
ENDBRANCH   1   3
BRANCH   1   9
ATOM      9  C   UNL     1       1.919  -0.491  -0.146  1.00  0.00    -0.002 C 
ATOM     10  C   UNL     1       1.345   0.234  -1.395  1.00  0.00     0.005 C 
ATOM     11  C   UNL     1       0.646  -0.890   0.665  1.00  0.00    -0.023 C 
ATOM     12  C   UNL     1      -0.113   0.597  -1.088  1.00  0.00     0.009 C 
ATOM     13  C   UNL     1      -0.251   0.328   0.403  1.00  0.00     0.021 C 
ATOM     14  C   UNL     1       0.842  -0.979   2.203  1.00  0.00     0.008 C 
ATOM     15  C   UNL     1       0.007  -2.203   0.110  1.00  0.00     0.012 C 
ATOM     16  C   UNL     1      -1.614   0.172   1.044  1.00  0.00    -0.067 C 
ATOM     17  C   UNL     1      -0.509  -1.142   2.938  1.00  0.00     0.005 C 
ATOM     18  C   UNL     1      -1.577  -0.097   2.540  1.00  0.00     0.031 C 
ATOM     19  C   UNL     1      -2.754   0.412   0.364  1.00  0.00    -0.000 C 
BRANCH  19  20
ATOM     20  C   UNL     1      -4.100   0.413   0.978  1.00  0.00     0.004 C 
ATOM     21  C   UNL     1      -5.230   0.152   0.289  1.00  0.00    -0.040 C 
ATOM     22  C   UNL     1      -6.572   0.398   0.937  1.00  0.00     0.067 C 
ATOM     23  C   UNL     1      -5.251  -0.378  -1.103  1.00  0.00    -0.023 C 
ATOM     24  C   UNL     1      -7.513   1.154  -0.019  1.00  0.00     0.121 C 
ATOM     25  C   UNL     1      -6.277   0.220  -2.055  1.00  0.00     0.146 C 
ATOM     26  C   UNL     1      -4.419  -1.359  -1.486  1.00  0.00     0.015 C 
ATOM     27  C   UNL     1      -7.642   0.407  -1.357  1.00  0.00     0.068 C 
BRANCH  24  28
ATOM     28  O   UNL     1      -7.038   2.457  -0.247  1.00  0.00    -0.393 OA
ATOM     29  H   UNL     1      -7.223   2.976   0.579  1.00  0.00     0.210 HD
ENDBRANCH  24  28
BRANCH  25  30
ATOM     30  O   UNL     1      -6.438  -0.539  -3.229  1.00  0.00    -0.388 OA
ATOM     31  H   UNL     1      -6.808  -1.425  -2.967  1.00  0.00     0.211 HD
ENDBRANCH  25  30
ENDBRANCH  19  20
ENDBRANCH   1   9
TORSDOF 8
