REMARK SMILES CN(C)CCC(c1ccccc1)c1ccccn1
REMARK SMILES IDX 5 1 4 2 2 3 1 4 3 5 6 6 7 7 8 8 12 9 9 10 11 11 10 12 13 13
REMARK SMILES IDX 14 14 18 15 15 16 17 17 16 18
REMARK H PARENT
REMARK Flexibility Score: inf
ROOT
ATOM      1  C   UNL     1      -1.023  -0.417   0.994  1.00  0.00     0.030 C 
ENDROOT
BRANCH   1   2
ATOM      2  C   UNL     1      -2.207   0.460   0.543  1.00  0.00     0.085 C 
BRANCH   2   3
ATOM      3  N   UNL     1      -2.651   0.117  -0.826  1.00  0.00    -0.309 NA
ATOM      4  C   UNL     1      -3.547  -1.052  -0.818  1.00  0.00     0.104 C 
ATOM      5  C   UNL     1      -3.342   1.262  -1.439  1.00  0.00     0.104 C 
ENDBRANCH   2   3
ENDBRANCH   1   2
BRANCH   1   6
ATOM      6  C   UNL     1       0.178  -0.367   0.020  1.00  0.00     0.069 C 
BRANCH   6   7
ATOM      7  C   UNL     1       1.266  -1.337   0.443  1.00  0.00    -0.039 A 
ATOM      8  C   UNL     1       1.661  -2.373  -0.424  1.00  0.00     0.004 A 
ATOM      9  C   UNL     1       1.905  -1.216   1.693  1.00  0.00     0.004 A 
ATOM     10  C   UNL     1       2.667  -3.268  -0.047  1.00  0.00     0.000 A 
ATOM     11  C   UNL     1       2.911  -2.114   2.064  1.00  0.00     0.000 A 
ATOM     12  C   UNL     1       3.291  -3.139   1.196  1.00  0.00     0.000 A 
ENDBRANCH   6   7
BRANCH   6  13
ATOM     13  C   UNL     1       0.752   1.026  -0.125  1.00  0.00     0.048 A 
ATOM     14  C   UNL     1       1.134   1.509  -1.387  1.00  0.00     0.024 A 
ATOM     15  N   UNL     1       0.944   1.807   0.976  1.00  0.00    -0.261 NA
ATOM     16  C   UNL     1       1.683   2.789  -1.494  1.00  0.00     0.003 A 
ATOM     17  C   UNL     1       1.477   3.055   0.891  1.00  0.00     0.111 A 
ATOM     18  C   UNL     1       1.855   3.570  -0.351  1.00  0.00     0.020 A 
ENDBRANCH   6  13
ENDBRANCH   1   6
TORSDOF 5
