REMARK SMILES COc1ccc(CCNCC(O)COc2cccc(C)c2)cc1OC
REMARK SMILES IDX 10 1 9 2 8 4 7 5 6 6 3 7 23 8 4 9 22 10 5 11 2 12 1 13 24 14
REMARK SMILES IDX 25 15 11 16 12 17 13 19 14 20 15 21 16 22 21 23 17 24 19 25
REMARK SMILES IDX 18 26 20 27
REMARK H PARENT 9 3 12 18
REMARK Flexibility Score: inf
ROOT
ATOM      1  C   UNL     1       0.843  -0.136  -0.702  1.00  0.00     0.116 C 
ENDROOT
BRANCH   1   2
ATOM      2  N   UNL     1      -0.023  -1.014   0.098  1.00  0.00    -0.314 NA
ATOM      3  H   UNL     1      -0.064  -1.959  -0.352  1.00  0.00     0.122 HD
BRANCH   2   4
ATOM      4  C   UNL     1      -1.387  -0.481   0.238  1.00  0.00     0.086 C 
BRANCH   4   5
ATOM      5  C   UNL     1      -2.192  -0.571  -1.069  1.00  0.00     0.051 C 
BRANCH   5   6
ATOM      6  C   UNL     1      -3.615  -0.133  -0.842  1.00  0.00    -0.043 A 
ATOM      7  C   UNL     1      -6.259   0.699  -0.343  1.00  0.00     0.160 A 
ATOM      8  C   UNL     1      -5.914  -0.655  -0.204  1.00  0.00     0.160 A 
ATOM      9  C   UNL     1      -5.276   1.632  -0.722  1.00  0.00     0.051 A 
ATOM     10  C   UNL     1      -4.588  -1.065  -0.450  1.00  0.00     0.054 A 
ATOM     11  C   UNL     1      -3.965   1.218  -0.964  1.00  0.00     0.008 A 
BRANCH   7  12
ATOM     12  O   UNL     1      -7.588   1.077  -0.092  1.00  0.00    -0.493 OA
ATOM     13  C   UNL     1      -8.079   2.410  -0.192  1.00  0.00     0.278 C 
ENDBRANCH   7  12
BRANCH   8  14
ATOM     14  O   UNL     1      -6.914  -1.561   0.182  1.00  0.00    -0.493 OA
ATOM     15  C   UNL     1      -6.711  -2.959   0.364  1.00  0.00     0.278 C 
ENDBRANCH   8  14
ENDBRANCH   5   6
ENDBRANCH   4   5
ENDBRANCH   2   4
ENDBRANCH   1   2
BRANCH   1  16
ATOM     16  C   UNL     1       2.316  -0.529  -0.526  1.00  0.00     0.165 C 
BRANCH  16  17
ATOM     17  O   UNL     1       3.090   0.232  -1.417  1.00  0.00    -0.388 OA
ATOM     18  H   UNL     1       3.875  -0.321  -1.668  1.00  0.00     0.211 HD
ENDBRANCH  16  17
BRANCH  16  19
ATOM     19  C   UNL     1       2.783  -0.292   0.922  1.00  0.00     0.262 C 
BRANCH  19  20
ATOM     20  O   UNL     1       4.136  -0.715   1.103  1.00  0.00    -0.491 OA
BRANCH  20  21
ATOM     21  C   UNL     1       5.286   0.047   0.838  1.00  0.00     0.119 A 
ATOM     22  C   UNL     1       5.238   1.397   0.436  1.00  0.00     0.046 A 
ATOM     23  C   UNL     1       6.533  -0.573   0.992  1.00  0.00     0.049 A 
ATOM     24  C   UNL     1       6.420   2.103   0.198  1.00  0.00     0.004 A 
ATOM     25  C   UNL     1       7.721   0.128   0.736  1.00  0.00    -0.047 A 
ATOM     26  C   UNL     1       7.657   1.475   0.352  1.00  0.00     0.003 A 
ATOM     27  C   UNL     1       9.050  -0.537   0.941  1.00  0.00     0.044 C 
ENDBRANCH  20  21
ENDBRANCH  19  20
ENDBRANCH  16  19
ENDBRANCH   1  16
TORSDOF 11
