REMARK SMILES N#Cc1ccc(C(c2ccc(C#N)cc2)n2cncn2)cc1
REMARK SMILES IDX 7 1 6 2 3 3 4 4 22 5 5 6 21 7 2 8 1 9 16 10 17 11 20 12
REMARK SMILES IDX 18 13 19 14 8 15 9 16 15 17 10 18 14 19 11 20 12 21 13 22
REMARK H PARENT
REMARK Flexibility Score: inf
ROOT
ATOM      1  C   UNL     1      -0.496   0.321   0.937  1.00  0.00     0.169 C 
ENDROOT
BRANCH   1   2
ATOM      2  C   UNL     1      -1.271  -0.005  -0.330  1.00  0.00    -0.019 A 
ATOM      3  C   UNL     1      -2.762  -0.533  -2.659  1.00  0.00     0.052 A 
ATOM      4  C   UNL     1      -1.373  -0.391  -2.734  1.00  0.00     0.020 A 
ATOM      5  C   UNL     1      -3.410  -0.400  -1.426  1.00  0.00     0.020 A 
ATOM      6  C   UNL     1      -0.631  -0.123  -1.580  1.00  0.00     0.007 A 
ATOM      7  C   UNL     1      -2.670  -0.132  -0.270  1.00  0.00     0.007 A 
BRANCH   3   8
ATOM      8  C   UNL     1      -3.525  -0.808  -3.849  1.00  0.00     0.099 C 
ATOM      9  N   UNL     1      -4.138  -1.028  -4.806  1.00  0.00    -0.192 NA
ENDBRANCH   3   8
ENDBRANCH   1   2
BRANCH   1  10
ATOM     10  N   UNL     1      -0.330   1.770   1.116  1.00  0.00    -0.241 N 
ATOM     11  C   UNL     1      -0.227   2.727   0.173  1.00  0.00     0.220 A 
ATOM     12  N   UNL     1      -0.185   2.346   2.296  1.00  0.00    -0.159 NA
ATOM     13  N   UNL     1      -0.027   3.939   0.726  1.00  0.00    -0.223 NA
ATOM     14  C   UNL     1      -0.010   3.657   2.046  1.00  0.00     0.246 A 
ENDBRANCH   1  10
BRANCH   1  15
ATOM     15  C   UNL     1       0.832  -0.415   1.008  1.00  0.00    -0.019 A 
ATOM     16  C   UNL     1       0.849  -1.758   1.428  1.00  0.00     0.007 A 
ATOM     17  C   UNL     1       2.042   0.186   0.608  1.00  0.00     0.007 A 
ATOM     18  C   UNL     1       2.048  -2.474   1.472  1.00  0.00     0.020 A 
ATOM     19  C   UNL     1       3.240  -0.533   0.653  1.00  0.00     0.020 A 
ATOM     20  C   UNL     1       3.246  -1.863   1.088  1.00  0.00     0.052 A 
BRANCH  20  21
ATOM     21  C   UNL     1       4.481  -2.602   1.132  1.00  0.00     0.099 C 
ATOM     22  N   UNL     1       5.473  -3.196   1.168  1.00  0.00    -0.192 NA
ENDBRANCH  20  21
ENDBRANCH   1  15
TORSDOF 5
