REMARK SMILES C[C@@H]1CN([C@H]2CC[C@](C#N)(c3ccc(F)cc3)CC2)CC[C@]1(C(=O)O)c1ccccc1
REMARK SMILES IDX 1 1 2 2 3 3 4 4 20 5 21 6 22 7 23 8 24 9 25 10 26 12 27 13
REMARK SMILES IDX 31 14 28 15 30 16 29 17 5 18 19 19 6 20 18 21 7 22 8 23 9 24
REMARK SMILES IDX 10 25 11 26 12 27 17 28 13 29 16 30 14 31 15 32
REMARK H PARENT 25 11
REMARK Flexibility Score: inf
ROOT
ATOM      1  C   UNL     1      -2.926   1.900   2.244  1.00  0.00     0.010 C 
ATOM      2  C   UNL     1      -2.178   0.950   1.282  1.00  0.00     0.022 C 
ATOM      3  C   UNL     1      -1.399   1.709   0.176  1.00  0.00     0.089 C 
ATOM      4  N   UNL     1      -0.622   0.808  -0.701  1.00  0.00    -0.300 NA
ATOM      5  C   UNL     1      -1.359  -0.372  -1.200  1.00  0.00     0.086 C 
ATOM      6  C   UNL     1      -2.056  -1.151  -0.074  1.00  0.00     0.039 C 
ATOM      7  C   UNL     1      -3.032  -0.257   0.746  1.00  0.00     0.098 C 
ENDROOT
BRANCH   7   8
ATOM      8  C   UNL     1      -3.527  -1.035   1.963  1.00  0.00     0.314 C 
ATOM      9  O   UNL     1      -2.793  -1.892   2.526  1.00  0.00    -0.251 OA
BRANCH   8  10
ATOM     10  O   UNL     1      -4.771  -0.741   2.518  1.00  0.00    -0.481 OA
ATOM     11  H   UNL     1      -5.101  -1.227   3.343  1.00  0.00     0.296 HD
ENDBRANCH   8  10
ENDBRANCH   7   8
BRANCH   7  12
ATOM     12  C   UNL     1      -4.267   0.060  -0.145  1.00  0.00    -0.030 A 
ATOM     13  C   UNL     1      -5.076  -1.020  -0.579  1.00  0.00     0.005 A 
ATOM     14  C   UNL     1      -4.652   1.359  -0.558  1.00  0.00     0.005 A 
ATOM     15  C   UNL     1      -6.189  -0.816  -1.398  1.00  0.00     0.000 A 
ATOM     16  C   UNL     1      -5.767   1.556  -1.379  1.00  0.00     0.000 A 
ATOM     17  C   UNL     1      -6.531   0.471  -1.801  1.00  0.00     0.000 A 
ENDBRANCH   7  12
BRANCH   4  18
ATOM     18  C   UNL     1       0.833   0.684  -0.418  1.00  0.00     0.056 C 
ATOM     19  C   UNL     1       1.203  -0.537   0.446  1.00  0.00     0.021 C 
ATOM     20  C   UNL     1       1.627   0.665  -1.736  1.00  0.00     0.021 C 
ATOM     21  C   UNL     1       2.717  -0.584   0.716  1.00  0.00     0.029 C 
ATOM     22  C   UNL     1       3.140   0.628  -1.463  1.00  0.00     0.029 C 
ATOM     23  C   UNL     1       3.567  -0.587  -0.587  1.00  0.00     0.082 C 
BRANCH  23  24
ATOM     24  C   UNL     1       3.310  -1.830  -1.351  1.00  0.00     0.074 C 
ATOM     25  N   UNL     1       3.109  -2.801  -1.947  1.00  0.00    -0.197 NA
ENDBRANCH  23  24
BRANCH  23  26
ATOM     26  C   UNL     1       5.062  -0.572  -0.217  1.00  0.00    -0.028 A 
ATOM     27  C   UNL     1       5.599  -1.641   0.539  1.00  0.00     0.008 A 
ATOM     28  C   UNL     1       5.944   0.466  -0.607  1.00  0.00     0.008 A 
ATOM     29  C   UNL     1       6.948  -1.663   0.900  1.00  0.00     0.039 A 
ATOM     30  C   UNL     1       7.294   0.435  -0.241  1.00  0.00     0.039 A 
ATOM     31  C   UNL     1       7.795  -0.625   0.513  1.00  0.00     0.123 A 
ATOM     32  F   UNL     1       9.104  -0.650   0.864  1.00  0.00    -0.207 F 
ENDBRANCH  23  26
ENDBRANCH   4  18
TORSDOF 6
