REMARK SMILES CCN(CC)CCOC(=O)c1ccc(N)cc1Cl
REMARK SMILES IDX 7 1 6 2 3 3 2 4 1 5 4 6 5 7 8 8 9 9 10 10 11 11 17 12 12 13
REMARK SMILES IDX 18 14 16 15 13 16 14 17 15 18
REMARK H PARENT 15 19 15 20
REMARK Flexibility Score: inf
ROOT
ATOM      1  C   UNL     1      -0.799  -0.351  -0.675  1.00  0.00     0.248 C 
ENDROOT
BRANCH   1   2
ATOM      2  C   UNL     1      -1.719   0.318   0.344  1.00  0.00     0.126 C 
BRANCH   2   3
ATOM      3  N   UNL     1      -3.131   0.208  -0.090  1.00  0.00    -0.301 NA
BRANCH   3   4
ATOM      4  C   UNL     1      -3.922   1.375   0.363  1.00  0.00     0.081 C 
ATOM      5  C   UNL     1      -3.814   2.512  -0.648  1.00  0.00     0.021 C 
ENDBRANCH   3   4
BRANCH   3   6
ATOM      6  C   UNL     1      -3.736  -1.062   0.376  1.00  0.00     0.081 C 
ATOM      7  C   UNL     1      -4.791  -1.540  -0.617  1.00  0.00     0.021 C 
ENDBRANCH   3   6
ENDBRANCH   2   3
ENDBRANCH   1   2
BRANCH   1   8
ATOM      8  O   UNL     1       0.555  -0.186  -0.269  1.00  0.00    -0.461 OA
BRANCH   8   9
ATOM      9  C   UNL     1       1.635  -0.671  -1.014  1.00  0.00     0.339 C 
ATOM     10  O   UNL     1       1.422  -1.311  -2.080  1.00  0.00    -0.246 OA
BRANCH   9  11
ATOM     11  C   UNL     1       3.029  -0.466  -0.544  1.00  0.00     0.078 A 
ATOM     12  C   UNL     1       3.385   0.564   0.362  1.00  0.00     0.057 A 
ATOM     13  C   UNL     1       4.037  -1.330  -1.015  1.00  0.00     0.019 A 
ATOM     14  Cl  UNL     1       2.233   1.755   0.961  1.00  0.00    -0.083 Cl
ATOM     15  C   UNL     1       4.715   0.695   0.783  1.00  0.00     0.046 A 
ATOM     16  C   UNL     1       5.359  -1.188  -0.588  1.00  0.00     0.026 A 
ATOM     17  C   UNL     1       5.704  -0.178   0.314  1.00  0.00     0.033 A 
BRANCH  17  18
ATOM     18  N   UNL     1       7.058  -0.034   0.750  1.00  0.00    -0.399 N 
ATOM     19  H   UNL     1       7.326   0.719   1.423  1.00  0.00     0.156 HD
ATOM     20  H   UNL     1       7.803  -0.679   0.404  1.00  0.00     0.156 HD
ENDBRANCH  17  18
ENDBRANCH   9  11
ENDBRANCH   8   9
ENDBRANCH   1   8
TORSDOF 8
