REMARK SMILES O=C1C(CCS(=O)c2ccccc2)C(=O)N(c2ccccc2)N1c1ccccc1
REMARK SMILES IDX 4 1 3 2 1 3 2 4 23 5 14 6 16 7 15 8 24 9 25 10 29 11 26 12
REMARK SMILES IDX 28 13 27 14 17 15 18 16 22 17 19 18 21 19 20 20 5 21 6 22
REMARK SMILES IDX 7 23 8 24 9 25 13 26 10 27 12 28 11 29
REMARK H PARENT
REMARK Flexibility Score: inf
ROOT
ATOM      1  C   UNL     1       1.473  -1.217  -0.185  1.00  0.00     0.037 C 
ENDROOT
BRANCH   1   2
ATOM      2  C   UNL     1       0.395  -1.006   0.894  1.00  0.00     0.173 C 
ATOM      3  O   UNL     1      -0.737  -3.156   0.648  1.00  0.00    -0.272 OA
ATOM      4  C   UNL     1      -0.788  -1.896   0.650  1.00  0.00     0.258 C 
ATOM      5  N   UNL     1      -1.979  -1.156   0.389  1.00  0.00    -0.213 N 
ATOM      6  C   UNL     1      -0.282   0.331   0.778  1.00  0.00     0.258 C 
ATOM      7  N   UNL     1      -1.663   0.208   0.444  1.00  0.00    -0.213 N 
ATOM      8  O   UNL     1       0.272   1.432   1.038  1.00  0.00    -0.272 OA
BRANCH   5   9
ATOM      9  C   UNL     1      -3.169  -1.701  -0.206  1.00  0.00     0.067 A 
ATOM     10  C   UNL     1      -3.774  -2.843   0.342  1.00  0.00     0.028 A 
ATOM     11  C   UNL     1      -3.741  -1.097  -1.339  1.00  0.00     0.028 A 
ATOM     12  C   UNL     1      -4.936  -3.369  -0.230  1.00  0.00     0.002 A 
ATOM     13  C   UNL     1      -4.903  -1.626  -1.908  1.00  0.00     0.002 A 
ATOM     14  C   UNL     1      -5.501  -2.761  -1.354  1.00  0.00     0.000 A 
ENDBRANCH   5   9
BRANCH   7  15
ATOM     15  C   UNL     1      -2.626   1.273   0.525  1.00  0.00     0.067 A 
ATOM     16  C   UNL     1      -3.833   1.094   1.223  1.00  0.00     0.028 A 
ATOM     17  C   UNL     1      -2.370   2.505  -0.099  1.00  0.00     0.028 A 
ATOM     18  C   UNL     1      -4.769   2.130   1.289  1.00  0.00     0.002 A 
ATOM     19  C   UNL     1      -3.308   3.539  -0.030  1.00  0.00     0.002 A 
ATOM     20  C   UNL     1      -4.507   3.352   0.663  1.00  0.00     0.000 A 
ENDBRANCH   7  15
ENDBRANCH   1   2
BRANCH   1  21
ATOM     21  C   UNL     1       2.744  -0.417   0.108  1.00  0.00     0.112 C 
BRANCH  21  22
ATOM     22  S   UNL     1       4.018  -0.802  -1.115  1.00  0.00     0.053 S 
ATOM     23  O   UNL     1       3.568  -0.098  -2.389  1.00  0.00    -0.254 OA
BRANCH  22  24
ATOM     24  C   UNL     1       5.450   0.115  -0.591  1.00  0.00     0.039 A 
ATOM     25  C   UNL     1       6.629  -0.569  -0.267  1.00  0.00     0.018 A 
ATOM     26  C   UNL     1       5.410   1.514  -0.497  1.00  0.00     0.018 A 
ATOM     27  C   UNL     1       7.760   0.140   0.150  1.00  0.00     0.001 A 
ATOM     28  C   UNL     1       6.542   2.221  -0.080  1.00  0.00     0.001 A 
ATOM     29  C   UNL     1       7.716   1.535   0.244  1.00  0.00     0.000 A 
ENDBRANCH  22  24
ENDBRANCH  21  22
ENDBRANCH   1  21
TORSDOF 6
