REMARK SMILES Cc1cc(=O)n(-c2ccccc2)n1C
REMARK SMILES IDX 14 1 13 2 6 3 4 4 5 5 3 6 2 7 1 8 7 9 8 10 12 11 9 12 11 13
REMARK SMILES IDX 10 14
REMARK H PARENT
REMARK Flexibility Score: inf
ROOT
ATOM      1  C   UNL     1      -1.148   1.476   0.840  1.00  0.00     0.172 C 
ATOM      2  N   UNL     1      -1.250   0.259   0.030  1.00  0.00    -0.285 N 
ATOM      3  N   UNL     1      -0.233  -0.516  -0.333  1.00  0.00    -0.218 N 
ATOM      4  C   UNL     1      -0.728  -1.546  -1.048  1.00  0.00     0.271 A 
ATOM      5  O   UNL     1      -0.031  -2.467  -1.550  1.00  0.00    -0.267 OA
ATOM      6  C   UNL     1      -2.097  -1.431  -1.168  1.00  0.00     0.096 A 
ATOM      7  C   UNL     1      -2.391  -0.263  -0.482  1.00  0.00     0.037 A 
ATOM      8  C   UNL     1      -3.763   0.305  -0.292  1.00  0.00     0.066 C 
ENDROOT
BRANCH   3   9
ATOM      9  C   UNL     1       1.156  -0.288  -0.030  1.00  0.00     0.067 A 
ATOM     10  C   UNL     1       1.764   0.935  -0.357  1.00  0.00     0.028 A 
ATOM     11  C   UNL     1       1.923  -1.299   0.571  1.00  0.00     0.028 A 
ATOM     12  C   UNL     1       3.116   1.148  -0.070  1.00  0.00     0.002 A 
ATOM     13  C   UNL     1       3.274  -1.083   0.856  1.00  0.00     0.002 A 
ATOM     14  C   UNL     1       3.870   0.141   0.537  1.00  0.00     0.000 A 
ENDBRANCH   3   9
TORSDOF 1
