REMARK SMILES CCC1(c2ccccc2)C(=O)NC(=O)NC1=O
REMARK SMILES IDX 3 1 10 2 11 3 12 4 13 5 14 6 15 7 16 8 17 9 2 12 1 13 4 14
REMARK SMILES IDX 5 15 9 16 6 17 8 18 7 19
REMARK H PARENT 12 10 15 11
REMARK Flexibility Score: inf
ROOT
ATOM      1  C   UNL     1      -0.423  -0.225  -0.004  1.00  0.00     0.153 C 
ATOM      2  C   UNL     1      -0.579  -0.214  -1.520  1.00  0.00     0.248 C 
ATOM      3  O   UNL     1       0.090  -1.028  -2.214  1.00  0.00    -0.273 OA
ATOM      4  N   UNL     1      -1.482   0.675  -2.184  1.00  0.00    -0.277 N 
ATOM      5  C   UNL     1      -2.234   1.644  -1.461  1.00  0.00     0.328 C 
ATOM      6  O   UNL     1      -3.031   2.405  -2.071  1.00  0.00    -0.248 OA
ATOM      7  N   UNL     1      -2.079   1.760  -0.050  1.00  0.00    -0.277 N 
ATOM      8  C   UNL     1      -1.192   0.903   0.675  1.00  0.00     0.248 C 
ATOM      9  O   UNL     1      -1.065   1.073   1.918  1.00  0.00    -0.273 OA
ATOM     10  H   UNL     1      -1.586   0.618  -3.222  1.00  0.00     0.174 HD
ATOM     11  H   UNL     1      -2.617   2.493   0.465  1.00  0.00     0.174 HD
ENDROOT
BRANCH   1  12
ATOM     12  C   UNL     1      -0.978  -1.582   0.532  1.00  0.00     0.028 C 
ATOM     13  C   UNL     1      -2.465  -1.812   0.233  1.00  0.00     0.006 C 
ENDBRANCH   1  12
BRANCH   1  14
ATOM     14  C   UNL     1       1.070  -0.014   0.306  1.00  0.00    -0.023 A 
ATOM     15  C   UNL     1       1.692   1.179  -0.127  1.00  0.00     0.005 A 
ATOM     16  C   UNL     1       1.859  -0.957   1.006  1.00  0.00     0.005 A 
ATOM     17  C   UNL     1       3.044   1.419   0.129  1.00  0.00     0.000 A 
ATOM     18  C   UNL     1       3.212  -0.708   1.258  1.00  0.00     0.000 A 
ATOM     19  C   UNL     1       3.804   0.477   0.821  1.00  0.00     0.000 A 
ENDBRANCH   1  14
TORSDOF 2
