REMARK SMILES CC[N+](C)(C)Cc1ccccc1Br
REMARK SMILES IDX 3 1 4 2 5 3 2 4 1 5 6 6 7 7 8 8 12 9 9 10 11 11 13 12 10 13
REMARK H PARENT
REMARK Flexibility Score: inf
ROOT
ATOM      1  N   UNL     1      -1.147  -0.041  -0.631  1.00  0.00    -0.325 N 
ATOM      2  C   UNL     1      -2.206   0.185  -1.649  1.00  0.00     0.334 C 
ATOM      3  C   UNL     1      -1.229  -1.453  -0.175  1.00  0.00     0.334 C 
ENDROOT
BRANCH   1   4
ATOM      4  C   UNL     1      -1.323   0.906   0.515  1.00  0.00     0.260 C 
ATOM      5  C   UNL     1      -2.661   0.793   1.267  1.00  0.00     0.071 C 
ENDBRANCH   1   4
BRANCH   1   6
ATOM      6  C   UNL     1       0.172   0.211  -1.303  1.00  0.00     0.301 C 
BRANCH   6   7
ATOM      7  C   UNL     1       1.398   0.025  -0.413  1.00  0.00     0.020 A 
ATOM      8  C   UNL     1       1.939  -1.266  -0.254  1.00  0.00     0.011 A 
ATOM      9  C   UNL     1       2.047   1.116   0.220  1.00  0.00     0.026 A 
ATOM     10  C   UNL     1       3.056  -1.479   0.555  1.00  0.00     0.001 A 
ATOM     11  C   UNL     1       3.167   0.887   1.030  1.00  0.00     0.016 A 
ATOM     12  Br  UNL     1       1.498   2.940  -0.013  1.00  0.00    -0.050 Br
ATOM     13  C   UNL     1       3.665  -0.405   1.203  1.00  0.00     0.001 A 
ENDBRANCH   6   7
ENDBRANCH   1   6
TORSDOF 3
