REMARK SMILES CCN(CCCc1ccccc1)CCCc1ccccc1
REMARK SMILES IDX 3 1 2 2 1 3 4 4 5 5 6 6 7 7 8 8 12 9 9 10 11 11 10 12 13 13
REMARK SMILES IDX 14 14 15 15 16 16 17 17 21 18 18 19 20 20 19 21
REMARK H PARENT
REMARK Flexibility Score: inf
ROOT
ATOM      1  N   UNL     1       0.481   1.180   0.400  1.00  0.00    -0.304 NA
ENDROOT
BRANCH   1   2
ATOM      2  C   UNL     1       0.907   2.506   0.906  1.00  0.00     0.081 C 
ATOM      3  C   UNL     1       1.387   3.377  -0.250  1.00  0.00     0.021 C 
ENDBRANCH   1   2
BRANCH   1   4
ATOM      4  C   UNL     1       0.936   0.076   1.277  1.00  0.00     0.085 C 
BRANCH   4   5
ATOM      5  C   UNL     1       0.738  -1.315   0.644  1.00  0.00     0.020 C 
BRANCH   5   6
ATOM      6  C   UNL     1       1.414  -1.469  -0.729  1.00  0.00     0.037 C 
BRANCH   6   7
ATOM      7  C   UNL     1       2.913  -1.341  -0.640  1.00  0.00    -0.048 A 
ATOM      8  C   UNL     1       3.551  -0.159  -1.052  1.00  0.00     0.004 A 
ATOM      9  C   UNL     1       3.683  -2.391  -0.114  1.00  0.00     0.004 A 
ATOM     10  C   UNL     1       4.939  -0.032  -0.942  1.00  0.00     0.000 A 
ATOM     11  C   UNL     1       5.071  -2.261  -0.006  1.00  0.00     0.000 A 
ATOM     12  C   UNL     1       5.699  -1.082  -0.419  1.00  0.00     0.000 A 
ENDBRANCH   6   7
ENDBRANCH   5   6
ENDBRANCH   4   5
ENDBRANCH   1   4
BRANCH   1  13
ATOM     13  C   UNL     1      -0.962   1.145   0.050  1.00  0.00     0.085 C 
BRANCH  13  14
ATOM     14  C   UNL     1      -1.914   1.003   1.262  1.00  0.00     0.020 C 
BRANCH  14  15
ATOM     15  C   UNL     1      -3.384   1.205   0.867  1.00  0.00     0.037 C 
BRANCH  15  16
ATOM     16  C   UNL     1      -3.873   0.117  -0.054  1.00  0.00    -0.048 A 
ATOM     17  C   UNL     1      -3.956   0.340  -1.439  1.00  0.00     0.004 A 
ATOM     18  C   UNL     1      -4.205  -1.148   0.460  1.00  0.00     0.004 A 
ATOM     19  C   UNL     1      -4.376  -0.684  -2.294  1.00  0.00     0.000 A 
ATOM     20  C   UNL     1      -4.625  -2.169  -0.398  1.00  0.00     0.000 A 
ATOM     21  C   UNL     1      -4.711  -1.937  -1.773  1.00  0.00     0.000 A 
ENDBRANCH  15  16
ENDBRANCH  14  15
ENDBRANCH  13  14
ENDBRANCH   1  13
TORSDOF 9
