REMARK SMILES CC(C[N+](C)(C)C)OC(N)=O
REMARK SMILES IDX 1 1 2 2 3 3 4 4 5 5 6 6 7 7 8 8 9 9 10 10 11 11
REMARK H PARENT 10 12 10 13
REMARK Flexibility Score: inf
ROOT
ATOM      1  C   UNL     1       0.434  -2.245   1.036  1.00  0.00     0.059 C 
ATOM      2  C   UNL     1       1.008  -1.121   0.174  1.00  0.00     0.230 C 
ENDROOT
BRANCH   2   3
ATOM      3  C   UNL     1      -0.017  -0.437  -0.786  1.00  0.00     0.308 C 
BRANCH   3   4
ATOM      4  N   UNL     1      -1.211   0.264  -0.200  1.00  0.00    -0.328 N 
ATOM      5  C   UNL     1      -2.273  -0.698   0.193  1.00  0.00     0.334 C 
ATOM      6  C   UNL     1      -1.779   1.139  -1.258  1.00  0.00     0.334 C 
ATOM      7  C   UNL     1      -0.863   1.120   0.958  1.00  0.00     0.334 C 
ENDBRANCH   3   4
ENDBRANCH   2   3
BRANCH   2   8
ATOM      8  O   UNL     1       1.689  -0.179   1.004  1.00  0.00    -0.441 OA
BRANCH   8   9
ATOM      9  C   UNL     1       2.686   0.688   0.543  1.00  0.00     0.404 C 
ATOM     10  N   UNL     1       3.253   1.642   1.436  1.00  0.00    -0.335 N 
ATOM     11  O   UNL     1       3.091   0.632  -0.650  1.00  0.00    -0.225 OA
ATOM     12  H   UNL     1       2.921   1.696   2.425  1.00  0.00     0.163 HD
ATOM     13  H   UNL     1       4.000   2.295   1.111  1.00  0.00     0.163 HD
ENDBRANCH   8   9
ENDBRANCH   2   8
TORSDOF 4
