REMARK SMILES CN(C)c1ccc(O)c2c1C[C@H]1C[C@H]3[C@H](N(C)C)C(O)=C(C(N)=O)C(=O)[C@@]3(O)C(O)=C1C2=O
REMARK SMILES IDX 12 1 11 2 10 3 9 4 7 5 6 6 5 7 4 8 32 9 33 10 31 11 29 12
REMARK SMILES IDX 27 13 25 14 26 15 21 16 19 17 15 18 14 19 13 20 30 21 2 23
REMARK SMILES IDX 1 24 3 25 28 26 16 28 17 29 18 30 8 31 20 33 22 35 23 36
REMARK SMILES IDX 24 37
REMARK H PARENT 30 22 28 27 8 32 20 34 23 38 23 39
REMARK Flexibility Score: inf
ROOT
ATOM      1  C   UNL     1       0.678  -0.472  -0.519  1.00  0.00     0.032 C 
ATOM      2  C   UNL     1       1.884   0.193   0.165  1.00  0.00     0.047 C 
ATOM      3  C   UNL     1       3.082   0.261  -0.757  1.00  0.00    -0.009 A 
ATOM      4  C   UNL     1       2.897   0.372  -2.161  1.00  0.00     0.069 A 
ATOM      5  C   UNL     1       4.041   0.344  -3.007  1.00  0.00     0.127 A 
ATOM      6  C   UNL     1       5.320   0.353  -2.445  1.00  0.00     0.049 A 
ATOM      7  C   UNL     1       5.493   0.323  -1.066  1.00  0.00     0.030 A 
ATOM      8  C   UNL     1       4.387   0.269  -0.216  1.00  0.00     0.040 A 
ATOM      9  C   UNL     1       1.507   0.547  -2.684  1.00  0.00     0.196 C 
ATOM     10  O   UNL     1       1.324   0.903  -3.877  1.00  0.00    -0.289 OA
ATOM     11  C   UNL     1       0.341   0.286  -1.787  1.00  0.00     0.045 C 
ATOM     12  C   UNL     1      -0.945   0.596  -2.122  1.00  0.00     0.140 C 
ATOM     13  C   UNL     1      -2.157   0.092  -1.332  1.00  0.00     0.190 C 
ATOM     14  C   UNL     1      -2.837   1.273  -0.657  1.00  0.00     0.211 C 
ATOM     15  O   UNL     1      -3.088   2.305  -1.338  1.00  0.00    -0.290 OA
ATOM     16  C   UNL     1      -3.292   1.218   0.758  1.00  0.00     0.125 C 
ATOM     17  C   UNL     1      -3.277   0.043   1.429  1.00  0.00     0.126 C 
ATOM     18  C   UNL     1      -2.943  -1.256   0.716  1.00  0.00     0.130 C 
ATOM     19  C   UNL     1      -1.772  -0.990  -0.280  1.00  0.00     0.062 C 
ATOM     20  C   UNL     1      -0.495  -0.565   0.464  1.00  0.00     0.018 C 
ENDROOT
BRANCH  12  21
ATOM     21  O   UNL     1      -1.241   1.426  -3.209  1.00  0.00    -0.508 OA
ATOM     22  H   UNL     1      -0.608   2.127  -3.569  1.00  0.00     0.293 HD
ENDBRANCH  12  21
BRANCH   8  23
ATOM     23  N   UNL     1       4.602   0.228   1.202  1.00  0.00    -0.377 N 
ATOM     24  C   UNL     1       5.157  -0.978   1.812  1.00  0.00     0.143 C 
ATOM     25  C   UNL     1       4.540   1.474   1.966  1.00  0.00     0.143 C 
ENDBRANCH   8  23
BRANCH  13  26
ATOM     26  O   UNL     1      -3.085  -0.455  -2.239  1.00  0.00    -0.374 OA
ATOM     27  H   UNL     1      -2.628  -1.172  -2.752  1.00  0.00     0.212 HD
ENDBRANCH  13  26
BRANCH  18  28
ATOM     28  N   UNL     1      -4.145  -1.828   0.034  1.00  0.00    -0.299 NA
ATOM     29  C   UNL     1      -5.312  -1.892   0.939  1.00  0.00     0.105 C 
ATOM     30  C   UNL     1      -3.879  -3.192  -0.471  1.00  0.00     0.105 C 
ENDBRANCH  18  28
BRANCH   5  31
ATOM     31  O   UNL     1       3.965   0.269  -4.399  1.00  0.00    -0.507 OA
ATOM     32  H   UNL     1       3.151  -0.051  -4.903  1.00  0.00     0.293 HD
ENDBRANCH   5  31
BRANCH  17  33
ATOM     33  O   UNL     1      -3.563  -0.035   2.797  1.00  0.00    -0.510 OA
ATOM     34  H   UNL     1      -3.679   0.773   3.393  1.00  0.00     0.293 HD
ENDBRANCH  17  33
BRANCH  16  35
ATOM     35  C   UNL     1      -3.747   2.470   1.404  1.00  0.00     0.255 C 
ATOM     36  N   UNL     1      -2.983   3.670   1.278  1.00  0.00    -0.365 N 
ATOM     37  O   UNL     1      -4.830   2.490   2.049  1.00  0.00    -0.269 OA
ATOM     38  H   UNL     1      -3.327   4.560   1.703  1.00  0.00     0.159 HD
ATOM     39  H   UNL     1      -2.059   3.669   0.790  1.00  0.00     0.159 HD
ENDBRANCH  16  35
TORSDOF 7
