REMARK SMILES Nc1nc(NC2CC2)c2ncn([C@H]3C=C[C@@H](CO)C3)c2n1
REMARK SMILES IDX 13 1 19 2 16 3 15 4 14 5 12 6 2 7 21 8 3 9 20 10 4 11 9 12
REMARK SMILES IDX 10 13 11 14 1 15 5 18 6 20 7 21 8 22 17 23 18 24
REMARK H PARENT 1 16 1 17 5 19 18 25
REMARK Flexibility Score: inf
ROOT
ATOM      1  C   UNL     1      -2.547  -1.606  -0.315  1.00  0.00     0.113 C 
ATOM      2  C   UNL     1      -2.987  -0.542  -1.335  1.00  0.00     0.040 C 
ATOM      3  C   UNL     1      -3.912   0.424  -0.569  1.00  0.00     0.039 C 
ATOM      4  C   UNL     1      -3.842  -0.046   0.846  1.00  0.00    -0.023 C 
ATOM      5  C   UNL     1      -3.112  -1.139   0.981  1.00  0.00    -0.006 C 
ENDROOT
BRANCH   1   6
ATOM      6  N   UNL     1      -1.086  -1.720  -0.245  1.00  0.00    -0.308 N 
ATOM      7  C   UNL     1       0.657   1.171   1.056  1.00  0.00     0.224 A 
ATOM      8  N   UNL     1      -0.419   0.408   0.695  1.00  0.00    -0.193 NA
ATOM      9  N   UNL     1       1.932   0.689   0.893  1.00  0.00    -0.194 NA
ATOM     10  C   UNL     1      -0.184  -0.823   0.183  1.00  0.00     0.168 A 
ATOM     11  C   UNL     1       2.168  -0.553   0.372  1.00  0.00     0.160 A 
ATOM     12  C   UNL     1       1.063  -1.316   0.011  1.00  0.00     0.150 A 
ATOM     13  N   UNL     1       1.013  -2.544  -0.540  1.00  0.00    -0.231 NA
ATOM     14  C   UNL     1      -0.325  -2.755  -0.685  1.00  0.00     0.202 A 
BRANCH   7  15
ATOM     15  N   UNL     1       0.453   2.473   1.598  1.00  0.00    -0.368 N 
ATOM     16  H   UNL     1      -0.514   2.848   1.721  1.00  0.00     0.159 HD
ATOM     17  H   UNL     1       1.268   3.064   1.875  1.00  0.00     0.159 HD
ENDBRANCH   7  15
BRANCH  11  18
ATOM     18  N   UNL     1       3.504  -1.041   0.198  1.00  0.00    -0.365 N 
ATOM     19  H   UNL     1       3.656  -2.017  -0.145  1.00  0.00     0.162 HD
BRANCH  18  20
ATOM     20  C   UNL     1       4.662  -0.255   0.612  1.00  0.00     0.081 C 
ATOM     21  C   UNL     1       5.859  -0.383  -0.314  1.00  0.00     0.027 C 
ATOM     22  C   UNL     1       4.998   0.870  -0.351  1.00  0.00     0.027 C 
ENDBRANCH  18  20
ENDBRANCH  11  18
ENDBRANCH   1   6
BRANCH   3  23
ATOM     23  C   UNL     1      -3.468   1.889  -0.703  1.00  0.00     0.163 C 
BRANCH  23  24
ATOM     24  O   UNL     1      -4.389   2.743  -0.077  1.00  0.00    -0.396 OA
ATOM     25  H   UNL     1      -4.116   2.814   0.874  1.00  0.00     0.210 HD
ENDBRANCH  23  24
ENDBRANCH   3  23
TORSDOF 6
