REMARK SMILES OCCN1CCN(CC/C=C2/c3ccccc3Sc3ccc(Cl)cc32)CC1
REMARK SMILES IDX 4 1 5 2 6 3 7 4 26 5 27 6 3 7 2 8 1 9 8 11 9 12 10 13 11 14
REMARK SMILES IDX 12 15 25 16 17 17 13 18 19 19 24 20 18 21 16 22 14 23 20 24
REMARK SMILES IDX 22 25 15 26 21 27 23 28
REMARK H PARENT 1 10
REMARK Flexibility Score: inf
ROOT
ATOM      1  N   UNL     1       4.497  -1.161   0.434  1.00  0.00    -0.299 NA
ATOM      2  C   UNL     1       3.704  -0.475   1.475  1.00  0.00     0.100 C 
ATOM      3  C   UNL     1       2.836   0.678   0.932  1.00  0.00     0.100 C 
ATOM      4  N   UNL     1       2.109   0.330  -0.305  1.00  0.00    -0.300 NA
ATOM      5  C   UNL     1       3.041  -0.162  -1.334  1.00  0.00     0.100 C 
ATOM      6  C   UNL     1       3.825  -1.392  -0.857  1.00  0.00     0.100 C 
ENDROOT
BRANCH   1   7
ATOM      7  C   UNL     1       5.946  -0.872   0.398  1.00  0.00     0.112 C 
BRANCH   7   8
ATOM      8  C   UNL     1       6.303   0.482  -0.226  1.00  0.00     0.171 C 
BRANCH   8   9
ATOM      9  O   UNL     1       6.252   0.403  -1.623  1.00  0.00    -0.395 OA
ATOM     10  H   UNL     1       6.469   1.311  -1.959  1.00  0.00     0.210 HD
ENDBRANCH   8   9
ENDBRANCH   7   8
ENDBRANCH   1   7
BRANCH   4  11
ATOM     11  C   UNL     1       0.958  -0.574  -0.083  1.00  0.00     0.088 C 
BRANCH  11  12
ATOM     12  C   UNL     1      -0.290   0.238   0.283  1.00  0.00     0.043 C 
BRANCH  12  13
ATOM     13  C   UNL     1      -1.499  -0.652   0.423  1.00  0.00    -0.016 C 
ATOM     14  C   UNL     1      -2.770  -0.203   0.396  1.00  0.00    -0.013 C 
ATOM     15  C   UNL     1      -3.901  -1.162   0.353  1.00  0.00    -0.004 A 
ATOM     16  C   UNL     1      -3.138   1.236   0.295  1.00  0.00    -0.003 A 
ATOM     17  C   UNL     1      -4.989  -0.888  -0.499  1.00  0.00     0.020 A 
ATOM     18  C   UNL     1      -3.979  -2.243   1.248  1.00  0.00     0.010 A 
ATOM     19  C   UNL     1      -4.181   1.605  -0.579  1.00  0.00     0.020 A 
ATOM     20  C   UNL     1      -2.641   2.186   1.205  1.00  0.00     0.030 A 
ATOM     21  S   UNL     1      -4.840   0.403  -1.744  1.00  0.00    -0.089 SA
ATOM     22  C   UNL     1      -6.150  -1.666  -0.428  1.00  0.00     0.016 A 
ATOM     23  C   UNL     1      -5.133  -3.031   1.296  1.00  0.00     0.001 A 
ATOM     24  C   UNL     1      -4.691   2.908  -0.561  1.00  0.00     0.017 A 
ATOM     25  C   UNL     1      -3.135   3.495   1.200  1.00  0.00     0.041 A 
ATOM     26  C   UNL     1      -6.220  -2.737   0.466  1.00  0.00     0.001 A 
ATOM     27  C   UNL     1      -4.159   3.854   0.318  1.00  0.00     0.022 A 
ATOM     28  Cl  UNL     1      -2.503   4.675   2.334  1.00  0.00    -0.084 Cl
ENDBRANCH  12  13
ENDBRANCH  11  12
ENDBRANCH   4  11
TORSDOF 6
