REMARK SMILES CN1CCC(OC(c2ccccc2)c2ccccc2)CC1
REMARK SMILES IDX 7 1 6 2 5 3 1 4 2 5 3 6 21 7 4 8 20 9 8 10 9 11 13 12 10 13
REMARK SMILES IDX 12 14 11 15 14 16 15 17 19 18 16 19 18 20 17 21
REMARK H PARENT
REMARK Flexibility Score: inf
ROOT
ATOM      1  C   UNL     1      -0.891   0.511  -0.329  1.00  0.00     0.179 C 
ENDROOT
BRANCH   1   2
ATOM      2  O   UNL     1       0.218  -0.154   0.259  1.00  0.00    -0.365 OA
BRANCH   2   3
ATOM      3  C   UNL     1       1.303  -0.271  -0.648  1.00  0.00     0.122 C 
ATOM      4  C   UNL     1       5.014   0.118   1.202  1.00  0.00     0.105 C 
ATOM      5  N   UNL     1       4.221  -0.460   0.106  1.00  0.00    -0.306 NA
ATOM      6  C   UNL     1       3.695   0.597  -0.798  1.00  0.00     0.087 C 
ATOM      7  C   UNL     1       3.185  -1.374   0.645  1.00  0.00     0.087 C 
ATOM      8  C   UNL     1       2.232   0.957  -0.499  1.00  0.00     0.047 C 
ATOM      9  C   UNL     1       2.047  -1.592  -0.357  1.00  0.00     0.047 C 
ENDBRANCH   2   3
ENDBRANCH   1   2
BRANCH   1  10
ATOM     10  C   UNL     1      -1.711  -0.444  -1.172  1.00  0.00    -0.015 A 
ATOM     11  C   UNL     1      -1.913  -1.777  -0.767  1.00  0.00     0.007 A 
ATOM     12  C   UNL     1      -2.325   0.012  -2.351  1.00  0.00     0.007 A 
ATOM     13  C   UNL     1      -2.694  -2.640  -1.541  1.00  0.00     0.000 A 
ATOM     14  C   UNL     1      -3.107  -0.854  -3.122  1.00  0.00     0.000 A 
ATOM     15  C   UNL     1      -3.289  -2.179  -2.719  1.00  0.00     0.000 A 
ENDBRANCH   1  10
BRANCH   1  16
ATOM     16  C   UNL     1      -1.769   1.088   0.758  1.00  0.00    -0.015 A 
ATOM     17  C   UNL     1      -2.434   2.311   0.549  1.00  0.00     0.007 A 
ATOM     18  C   UNL     1      -1.989   0.388   1.960  1.00  0.00     0.007 A 
ATOM     19  C   UNL     1      -3.278   2.834   1.533  1.00  0.00     0.000 A 
ATOM     20  C   UNL     1      -2.834   0.916   2.941  1.00  0.00     0.000 A 
ATOM     21  C   UNL     1      -3.476   2.139   2.729  1.00  0.00     0.000 A 
ENDBRANCH   1  16
TORSDOF 4
