REMARK SMILES C1CCC(C(CC2CCCCN2)C2CCCCC2)CC1
REMARK SMILES IDX 6 1 5 2 4 3 3 4 19 5 2 6 20 7 1 8 13 9 14 10 18 11 15 12
REMARK SMILES IDX 17 13 16 14 7 15 8 16 12 17 9 18 11 19 10 21
REMARK H PARENT 12 20
REMARK Flexibility Score: inf
ROOT
ATOM      1  C   UNL     1      -1.133   0.880   0.422  1.00  0.00     0.023 C 
ENDROOT
BRANCH   1   2
ATOM      2  C   UNL     1       0.264   0.479  -0.164  1.00  0.00    -0.003 C 
BRANCH   2   3
ATOM      3  C   UNL     1       0.651  -0.990   0.287  1.00  0.00    -0.008 C 
ATOM      4  C   UNL     1       1.584  -1.081   1.525  1.00  0.00     0.004 C 
ATOM      5  C   UNL     1       1.141  -1.877  -0.900  1.00  0.00     0.004 C 
ATOM      6  C   UNL     1       1.722  -2.534   2.027  1.00  0.00     0.000 C 
ATOM      7  C   UNL     1       2.091  -3.007  -0.460  1.00  0.00     0.000 C 
ATOM      8  C   UNL     1       1.655  -3.588   0.891  1.00  0.00     0.000 C 
ENDBRANCH   2   3
BRANCH   2   9
ATOM      9  C   UNL     1       1.365   1.572   0.145  1.00  0.00    -0.008 C 
ATOM     10  C   UNL     1       0.885   3.023  -0.183  1.00  0.00     0.004 C 
ATOM     11  C   UNL     1       2.737   1.280  -0.548  1.00  0.00     0.004 C 
ATOM     12  C   UNL     1       2.056   4.003  -0.350  1.00  0.00     0.000 C 
ATOM     13  C   UNL     1       2.940   2.098  -1.832  1.00  0.00     0.000 C 
ATOM     14  C   UNL     1       2.971   3.609  -1.529  1.00  0.00     0.000 C 
ENDBRANCH   2   9
ENDBRANCH   1   2
BRANCH   1  15
ATOM     15  C   UNL     1      -2.307  -0.027  -0.055  1.00  0.00     0.053 C 
ATOM     16  C   UNL     1      -3.586   0.790  -0.386  1.00  0.00     0.019 C 
ATOM     17  N   UNL     1      -2.622  -1.048   0.961  1.00  0.00    -0.314 NA
ATOM     18  C   UNL     1      -4.870  -0.064  -0.288  1.00  0.00     0.003 C 
ATOM     19  C   UNL     1      -3.506  -2.095   0.416  1.00  0.00     0.081 C 
ATOM     20  H   UNL     1      -3.088  -0.594   1.782  1.00  0.00     0.122 HD
ATOM     21  C   UNL     1      -4.576  -1.544  -0.564  1.00  0.00     0.015 C 
ENDBRANCH   1  15
TORSDOF 4
