REMARK SMILES CC(C)[N+](C)(CCC(C(N)=O)(c1ccccc1)c1ccccc1)C(C)C
REMARK SMILES IDX 6 1 4 2 5 3 2 4 1 5 3 6 24 7 25 8 26 9 7 10 8 11 9 12 10 13
REMARK SMILES IDX 11 14 12 17 13 18 17 19 14 20 16 21 15 22 18 23 19 24 23 25
REMARK SMILES IDX 20 26 22 27 21 28
REMARK H PARENT 10 15 10 16
REMARK Flexibility Score: inf
ROOT
ATOM      1  C   UNL     1       0.808  -0.630  -0.837  1.00  0.00     0.265 C 
ENDROOT
BRANCH   1   2
ATOM      2  N   UNL     1       2.253  -0.403  -0.449  1.00  0.00    -0.322 N 
ATOM      3  C   UNL     1       2.972  -1.571  -1.051  1.00  0.00     0.334 C 
BRANCH   2   4
ATOM      4  C   UNL     1       2.427  -0.433   1.070  1.00  0.00     0.179 C 
ATOM      5  C   UNL     1       1.688  -1.592   1.795  1.00  0.00     0.075 C 
ATOM      6  C   UNL     1       3.899  -0.452   1.550  1.00  0.00     0.075 C 
ENDBRANCH   2   4
BRANCH   2   7
ATOM      7  C   UNL     1       2.731   0.904  -1.104  1.00  0.00     0.179 C 
ATOM      8  C   UNL     1       2.615   2.182  -0.228  1.00  0.00     0.075 C 
ATOM      9  C   UNL     1       4.156   0.885  -1.726  1.00  0.00     0.075 C 
ENDBRANCH   2   7
ENDBRANCH   1   2
BRANCH   1  10
ATOM     10  C   UNL     1      -0.214   0.437  -0.350  1.00  0.00     0.088 C 
BRANCH  10  11
ATOM     11  C   UNL     1      -1.724   0.060  -0.565  1.00  0.00     0.104 C 
BRANCH  11  12
ATOM     12  C   UNL     1      -1.990  -0.267  -2.043  1.00  0.00     0.232 C 
ATOM     13  N   UNL     1      -1.427   0.528  -3.092  1.00  0.00    -0.369 N 
ATOM     14  O   UNL     1      -2.830  -1.153  -2.359  1.00  0.00    -0.274 OA
ATOM     15  H   UNL     1      -1.608   0.276  -4.088  1.00  0.00     0.159 HD
ATOM     16  H   UNL     1      -0.906   1.411  -2.900  1.00  0.00     0.159 HD
ENDBRANCH  11  12
BRANCH  11  17
ATOM     17  C   UNL     1      -2.676   1.234  -0.233  1.00  0.00    -0.028 A 
ATOM     18  C   UNL     1      -4.071   1.042  -0.372  1.00  0.00     0.005 A 
ATOM     19  C   UNL     1      -2.230   2.490   0.249  1.00  0.00     0.005 A 
ATOM     20  C   UNL     1      -4.974   2.065  -0.071  1.00  0.00     0.000 A 
ATOM     21  C   UNL     1      -3.141   3.508   0.547  1.00  0.00     0.000 A 
ATOM     22  C   UNL     1      -4.509   3.297   0.384  1.00  0.00     0.000 A 
ENDBRANCH  11  17
BRANCH  11  23
ATOM     23  C   UNL     1      -2.042  -1.118   0.391  1.00  0.00    -0.028 A 
ATOM     24  C   UNL     1      -1.918  -2.472  -0.005  1.00  0.00     0.005 A 
ATOM     25  C   UNL     1      -2.331  -0.860   1.753  1.00  0.00     0.005 A 
ATOM     26  C   UNL     1      -2.146  -3.511   0.901  1.00  0.00     0.000 A 
ATOM     27  C   UNL     1      -2.559  -1.904   2.653  1.00  0.00     0.000 A 
ATOM     28  C   UNL     1      -2.475  -3.228   2.225  1.00  0.00     0.000 A 
ENDBRANCH  11  23
ENDBRANCH  10  11
ENDBRANCH   1  10
TORSDOF 8
