REMARK SMILES CC(C(=O)O)c1cccc(C(=O)c2ccccc2)c1
REMARK SMILES IDX 6 1 19 2 10 3 9 4 8 5 7 6 2 7 1 8 3 9 4 10 5 11 11 13 12 14
REMARK SMILES IDX 13 15 14 16 18 17 15 18 17 19 16 20
REMARK H PARENT 5 12
REMARK Flexibility Score: inf
ROOT
ATOM      1  C   UNL     1      -2.108  -0.579  -0.522  1.00  0.00    -0.033 A 
ATOM      2  C   UNL     1      -1.126   0.361  -0.152  1.00  0.00     0.016 A 
ATOM      3  C   UNL     1       0.062  -0.048   0.478  1.00  0.00     0.023 A 
ATOM      4  C   UNL     1       0.251  -1.411   0.761  1.00  0.00     0.012 A 
ATOM      5  C   UNL     1      -0.717  -2.349   0.396  1.00  0.00     0.001 A 
ATOM      6  C   UNL     1      -1.887  -1.938  -0.244  1.00  0.00     0.004 A 
ENDROOT
BRANCH   1   7
ATOM      7  C   UNL     1      -3.383  -0.145  -1.216  1.00  0.00     0.126 C 
ATOM      8  C   UNL     1      -3.089   0.469  -2.591  1.00  0.00     0.025 C 
BRANCH   7   9
ATOM      9  C   UNL     1      -4.172   0.791  -0.340  1.00  0.00     0.310 C 
ATOM     10  O   UNL     1      -3.923   2.028  -0.327  1.00  0.00    -0.252 OA
BRANCH   9  11
ATOM     11  O   UNL     1      -5.156   0.278   0.500  1.00  0.00    -0.481 OA
ATOM     12  H   UNL     1      -5.687   0.887   1.111  1.00  0.00     0.296 HD
ENDBRANCH   9  11
ENDBRANCH   7   9
ENDBRANCH   1   7
BRANCH   3  13
ATOM     13  C   UNL     1       1.074   0.961   0.876  1.00  0.00     0.193 C 
ATOM     14  O   UNL     1       0.684   2.109   1.225  1.00  0.00    -0.289 OA
BRANCH  13  15
ATOM     15  C   UNL     1       2.528   0.668   0.880  1.00  0.00     0.022 A 
ATOM     16  C   UNL     1       3.093  -0.210  -0.065  1.00  0.00     0.012 A 
ATOM     17  C   UNL     1       3.372   1.306   1.807  1.00  0.00     0.012 A 
ATOM     18  C   UNL     1       4.468  -0.463  -0.061  1.00  0.00     0.001 A 
ATOM     19  C   UNL     1       4.746   1.049   1.807  1.00  0.00     0.001 A 
ATOM     20  C   UNL     1       5.294   0.164   0.875  1.00  0.00     0.000 A 
ENDBRANCH  13  15
ENDBRANCH   3  13
TORSDOF 5
