REMARK SMILES O=C(O)[C@H](CC(=O)N1C[C@H]2CCCC[C@H]2C1)Cc1ccccc1
REMARK SMILES IDX 5 1 4 2 17 3 18 4 19 5 23 6 20 7 22 8 21 9 2 10 1 11 3 12
REMARK SMILES IDX 6 14 7 15 8 16 9 17 16 18 10 19 15 20 11 21 14 22 12 23
REMARK SMILES IDX 13 24
REMARK H PARENT 3 13
REMARK Flexibility Score: inf
ROOT
ATOM      1  C   UNL     1       0.797  -0.530  -1.476  1.00  0.00     0.115 C 
ENDROOT
BRANCH   1   2
ATOM      2  C   UNL     1       2.056  -0.060  -0.718  1.00  0.00     0.112 C 
BRANCH   2   3
ATOM      3  C   UNL     1       3.249  -0.993  -1.018  1.00  0.00     0.051 C 
BRANCH   3   4
ATOM      4  C   UNL     1       4.534  -0.459  -0.437  1.00  0.00    -0.047 A 
ATOM      5  C   UNL     1       5.251   0.544  -1.113  1.00  0.00     0.004 A 
ATOM      6  C   UNL     1       5.001  -0.921   0.804  1.00  0.00     0.004 A 
ATOM      7  C   UNL     1       6.424   1.065  -0.560  1.00  0.00     0.000 A 
ATOM      8  C   UNL     1       6.175  -0.397   1.353  1.00  0.00     0.000 A 
ATOM      9  C   UNL     1       6.886   0.594   0.672  1.00  0.00     0.000 A 
ENDBRANCH   3   4
ENDBRANCH   2   3
BRANCH   2  10
ATOM     10  C   UNL     1       1.790   0.019   0.763  1.00  0.00     0.307 C 
ATOM     11  O   UNL     1       1.578  -1.028   1.431  1.00  0.00    -0.252 OA
BRANCH  10  12
ATOM     12  O   UNL     1       1.766   1.260   1.394  1.00  0.00    -0.481 OA
ATOM     13  H   UNL     1       1.580   1.333   2.386  1.00  0.00     0.296 HD
ENDBRANCH  10  12
ENDBRANCH   2  10
ENDBRANCH   1   2
BRANCH   1  14
ATOM     14  C   UNL     1      -0.332   0.458  -1.331  1.00  0.00     0.223 C 
ATOM     15  O   UNL     1      -0.275   1.540  -1.978  1.00  0.00    -0.275 OA
BRANCH  14  16
ATOM     16  N   UNL     1      -1.429   0.231  -0.429  1.00  0.00    -0.342 N 
ATOM     17  C   UNL     1      -2.338   1.289  -0.015  1.00  0.00     0.123 C 
ATOM     18  C   UNL     1      -1.777  -1.060   0.151  1.00  0.00     0.123 C 
ATOM     19  C   UNL     1      -3.167   0.661   1.103  1.00  0.00     0.013 C 
ATOM     20  C   UNL     1      -3.151  -0.850   0.799  1.00  0.00     0.013 C 
ATOM     21  C   UNL     1      -4.566   1.282   1.301  1.00  0.00     0.006 C 
ATOM     22  C   UNL     1      -4.268  -1.275  -0.183  1.00  0.00     0.006 C 
ATOM     23  C   UNL     1      -5.599   0.792   0.284  1.00  0.00     0.000 C 
ATOM     24  C   UNL     1      -5.631  -0.735   0.243  1.00  0.00     0.000 C 
ENDBRANCH  14  16
ENDBRANCH   1  14
TORSDOF 7
