REMARK SMILES CC1(C)O[C@@H]2C[C@H]3[C@@H]4CCC5=CC(=O)C=C[C@]5(C)[C@H]4[C@@H](O)C[C@]3(C)[C@]2(C(=O)CO)O1
REMARK SMILES IDX 26 1 27 2 25 3 7 4 6 5 23 6 8 7 5 8 24 9 22 10 19 11 9 12
REMARK SMILES IDX 4 13 30 14 20 15 17 16 10 17 2 18 11 19 16 20 18 21 1 22
REMARK SMILES IDX 3 23 12 24 15 25 13 26 14 27 21 28 28 30 29 31
REMARK H PARENT 21 29 29 32
REMARK Flexibility Score: inf
ROOT
ATOM      1  C   UNL     1      -3.297   1.449   1.514  1.00  0.00     0.193 C 
ATOM      2  O   UNL     1      -3.752   2.559   1.277  1.00  0.00    -0.294 OA
ENDROOT
BRANCH   1   3
ATOM      3  C   UNL     1      -2.451   0.717   0.470  1.00  0.00     0.164 C 
ATOM      4  C   UNL     1      -0.369   0.472  -0.673  1.00  0.00     0.005 C 
ATOM      5  C   UNL     1      -1.262   1.233  -1.643  1.00  0.00     0.040 C 
ATOM      6  C   UNL     1      -0.911   0.846   0.712  1.00  0.00     0.012 C 
ATOM      7  C   UNL     1       1.165   0.602  -0.795  1.00  0.00    -0.000 C 
ATOM      8  C   UNL     1      -2.651   1.209  -0.968  1.00  0.00     0.162 C 
ATOM      9  C   UNL     1      -0.573   2.319   1.125  1.00  0.00     0.015 C 
ATOM     10  C   UNL     1      -0.309  -0.151   1.737  1.00  0.00     0.042 C 
ATOM     11  C   UNL     1       1.825  -0.367   0.252  1.00  0.00     0.035 C 
ATOM     12  C   UNL     1       1.614   0.240  -2.228  1.00  0.00     0.009 C 
ATOM     13  O   UNL     1      -3.476   0.282  -1.607  1.00  0.00    -0.344 OA
ATOM     14  O   UNL     1      -2.847  -0.627   0.444  1.00  0.00    -0.333 OA
ATOM     15  C   UNL     1       1.246  -0.182   1.702  1.00  0.00     0.119 C 
ATOM     16  C   UNL     1       3.401  -0.405   0.143  1.00  0.00     0.013 C 
ATOM     17  C   UNL     1       3.134   0.266  -2.365  1.00  0.00     0.032 C 
ATOM     18  C   UNL     1      -3.655  -0.787  -0.704  1.00  0.00     0.164 C 
ATOM     19  C   UNL     1       3.751  -0.645  -1.335  1.00  0.00    -0.056 C 
ATOM     20  C   UNL     1       3.951  -1.501   1.057  1.00  0.00    -0.012 C 
ATOM     21  C   UNL     1       4.080   0.917   0.576  1.00  0.00     0.021 C 
ATOM     22  C   UNL     1      -5.130  -0.849  -0.288  1.00  0.00     0.075 C 
ATOM     23  C   UNL     1      -3.265  -2.093  -1.403  1.00  0.00     0.075 C 
ATOM     24  C   UNL     1       4.581  -1.623  -1.732  1.00  0.00     0.052 C 
ATOM     25  C   UNL     1       4.769  -2.468   0.640  1.00  0.00     0.048 C 
ATOM     26  C   UNL     1       5.146  -2.566  -0.768  1.00  0.00     0.178 C 
ATOM     27  O   UNL     1       5.940  -3.465  -1.150  1.00  0.00    -0.290 OA
BRANCH  15  28
ATOM     28  O   UNL     1       1.766   0.967   2.314  1.00  0.00    -0.393 OA
ATOM     29  H   UNL     1       1.628   0.866   3.292  1.00  0.00     0.210 HD
ENDBRANCH  15  28
ENDBRANCH   1   3
BRANCH   1  30
ATOM     30  C   UNL     1      -3.528   0.854   2.877  1.00  0.00     0.234 C 
BRANCH  30  31
ATOM     31  O   UNL     1      -4.902   0.755   3.135  1.00  0.00    -0.388 OA
ATOM     32  H   UNL     1      -5.219  -0.064   2.673  1.00  0.00     0.211 HD
ENDBRANCH  30  31
ENDBRANCH   1  30
TORSDOF 4
