REMARK SMILES CCCN1C[C@H](CSC)C[C@@H]2c3cccc4[nH]cc(c34)C[C@H]21
REMARK SMILES IDX 22 1 21 2 19 3 18 4 17 5 16 6 15 7 14 8 13 9 12 10 20 11
REMARK SMILES IDX 11 12 10 13 6 14 5 15 4 16 3 18 2 19 1 20 7 21 8 22 9 23
REMARK H PARENT 17 17
REMARK Flexibility Score: inf
ROOT
ATOM      1  C   UNL     1      -0.235  -0.636  -0.271  1.00  0.00     0.068 C 
ATOM      2  C   UNL     1      -1.180  -1.346  -1.301  1.00  0.00     0.057 C 
ATOM      3  C   UNL     1      -2.586  -0.875  -1.100  1.00  0.00    -0.021 A 
ATOM      4  C   UNL     1      -3.813  -1.409  -1.480  1.00  0.00     0.087 A 
ATOM      5  N   UNL     1      -4.814  -0.555  -1.135  1.00  0.00    -0.361 N 
ATOM      6  C   UNL     1      -4.212   0.506  -0.561  1.00  0.00     0.046 A 
ATOM      7  C   UNL     1      -4.780   1.685  -0.080  1.00  0.00     0.027 A 
ATOM      8  C   UNL     1      -3.901   2.676   0.413  1.00  0.00     0.002 A 
ATOM      9  C   UNL     1      -2.496   2.470   0.407  1.00  0.00     0.005 A 
ATOM     10  C   UNL     1      -1.959   1.246  -0.062  1.00  0.00    -0.034 A 
ATOM     11  C   UNL     1      -2.868   0.324  -0.539  1.00  0.00     0.006 A 
ATOM     12  C   UNL     1      -0.480   0.921  -0.260  1.00  0.00     0.038 C 
ATOM     13  C   UNL     1       0.422   1.587   0.794  1.00  0.00     0.015 C 
ATOM     14  C   UNL     1       1.899   1.218   0.555  1.00  0.00     0.014 C 
ATOM     15  C   UNL     1       2.055  -0.311   0.521  1.00  0.00     0.089 C 
ATOM     16  N   UNL     1       1.205  -0.899  -0.539  1.00  0.00    -0.299 NA
ATOM     17  H   UNL     1      -5.836  -0.685  -1.306  1.00  0.00     0.166 HD
ENDROOT
BRANCH  16  18
ATOM     18  C   UNL     1       1.563  -2.319  -0.787  1.00  0.00     0.084 C 
BRANCH  18  19
ATOM     19  C   UNL     1       1.250  -3.270   0.389  1.00  0.00     0.012 C 
ATOM     20  C   UNL     1       1.572  -4.715   0.018  1.00  0.00     0.005 C 
ENDBRANCH  18  19
ENDBRANCH  16  18
BRANCH  14  21
ATOM     21  C   UNL     1       2.811   1.821   1.644  1.00  0.00     0.074 C 
BRANCH  21  22
ATOM     22  S   UNL     1       2.868   3.650   1.554  1.00  0.00    -0.165 SA
ATOM     23  C   UNL     1       4.213   3.743   0.328  1.00  0.00     0.085 C 
ENDBRANCH  21  22
ENDBRANCH  14  21
TORSDOF 4
