REMARK SMILES CO[C@H]1/C=C/O[C@@]2(C)Oc3c(C)c(O)c4c(O)c(c5c(nc6cc(C)ccn65)c4c3C2=O)NC(=O)/C(C)=C\C=C\[C@H](C)[C@H](O)[C@@H](C)[C@@H](O)[C@@H](C)[C@H](OC(C)=O)[C@@H]1C
REMARK SMILES IDX 43 1 45 2 46 3 47 4 49 5 50 6 51 7 56 8 57 9 3 10 2 12 1 13
REMARK SMILES IDX 52 14 53 15 54 16 55 17 48 18 41 20 42 21 40 22 39 23 38 24
REMARK SMILES IDX 36 25 37 26 34 27 33 28 35 29 18 31 16 32 19 33 15 34 20 35
REMARK SMILES IDX 28 36 13 37 29 38 21 39 22 40 27 41 11 42 30 43 23 44 26 45
REMARK SMILES IDX 10 46 12 47 31 48 24 49 9 50 7 51 32 52 25 53 8 54 17 55
REMARK SMILES IDX 14 57 6 59 5 60 4 61 44 63
REMARK H PARENT 48 19 33 30 17 56 14 58 44 64
REMARK Flexibility Score: 50.00
ROOT
ATOM      1  C   UNL     1      -1.621  -1.785  -0.440  1.00  0.00     0.126 C 
ENDROOT
BRANCH   1   2
ATOM      2  C   UNL     1      -2.706  -0.996  -1.277  1.00  0.00     0.044 C 
ATOM      3  C   UNL     1      -3.206  -1.861  -2.469  1.00  0.00     0.013 C 
BRANCH   2   4
ATOM      4  C   UNL     1      -3.936  -0.513  -0.389  1.00  0.00     0.126 C 
BRANCH   4   5
ATOM      5  C   UNL     1      -4.223   1.031  -0.516  1.00  0.00     0.056 C 
ATOM      6  C   UNL     1      -5.718   1.280  -0.822  1.00  0.00     0.014 C 
BRANCH   5   7
ATOM      7  C   UNL     1      -3.780   1.771   0.802  1.00  0.00     0.187 C 
BRANCH   7   8
ATOM      8  C   UNL     1      -3.870   3.358   0.848  1.00  0.00     0.060 C 
ATOM      9  C   UNL     1      -5.213   3.829   1.440  1.00  0.00     0.015 C 
BRANCH   8  10
ATOM     10  C   UNL     1      -3.523   4.158  -0.473  1.00  0.00     0.150 CG0
ATOM     11  G   UNL     1      -2.035   4.224  -0.760  1.00  0.00     0.000 G0
BRANCH  10  12
ATOM     12  O   UNL     1      -4.018   5.498  -0.418  1.00  0.00    -0.377 OA
ATOM     13  C   UNL     1      -5.208   5.635  -1.134  1.00  0.00     0.195 C 
ENDBRANCH  10  12
ENDBRANCH   8  10
ENDBRANCH   7   8
BRANCH   7  14
ATOM     14  O   UNL     1      -4.579   1.204   1.853  1.00  0.00    -0.462 OA
BRANCH  14  15
ATOM     15  C   UNL     1      -4.295   1.375   3.198  1.00  0.00     0.302 C 
ATOM     16  C   UNL     1      -5.340   0.997   4.197  1.00  0.00     0.139 C 
ATOM     17  O   UNL     1      -3.181   1.845   3.550  1.00  0.00    -0.253 OA
ENDBRANCH  14  15
ENDBRANCH   7  14
ENDBRANCH   5   7
ENDBRANCH   4   5
BRANCH   4  18
ATOM     18  O   UNL     1      -3.727  -0.863   0.944  1.00  0.00    -0.392 OA
ATOM     19  H   UNL     1      -4.438  -1.495   1.218  1.00  0.00     0.210 HD
ENDBRANCH   4  18
ENDBRANCH   2   4
ENDBRANCH   1   2
BRANCH   1  20
ATOM     20  C   UNL     1      -0.347  -2.309  -1.201  1.00  0.00     0.038 C 
ATOM     21  C   UNL     1       0.527  -1.191  -1.757  1.00  0.00     0.015 C 
BRANCH  20  22
ATOM     22  C   UNL     1       0.497  -3.194  -0.276  1.00  0.00    -0.021 C 
ATOM     23  C   UNL     1       1.704  -3.621  -0.631  1.00  0.00    -0.003 C 
BRANCH  23  24
ATOM     24  C   UNL     1       2.488  -4.496   0.289  1.00  0.00     0.009 C 
ATOM     25  C   UNL     1       3.586  -5.143  -0.081  1.00  0.00     0.014 C 
ATOM     26  C   UNL     1       3.966  -6.400   0.655  1.00  0.00     0.050 C 
BRANCH  25  27
ATOM     27  C   UNL     1       4.617  -4.603  -1.019  1.00  0.00     0.251 C 
ATOM     28  N   UNL     1       5.197  -3.272  -0.867  1.00  0.00    -0.317 N 
ATOM     29  O   UNL     1       5.229  -5.423  -1.768  1.00  0.00    -0.269 OA
ATOM     30  H   UNL     1       6.061  -3.170  -1.437  1.00  0.00     0.170 HD
BRANCH  28  31
ATOM     31  C   UNL     1       4.504  -2.040  -0.800  1.00  0.00     0.111 A 
ATOM     32  C   UNL     1       4.418  -1.258  -1.966  1.00  0.00     0.153 A 
ATOM     33  C   UNL     1       4.173  -1.407   0.417  1.00  0.00     0.101 A 
ATOM     34  C   UNL     1       3.943   0.060  -1.950  1.00  0.00     0.071 A 
ATOM     35  C   UNL     1       3.598  -0.143   0.475  1.00  0.00     0.101 A 
ATOM     36  N   UNL     1       4.312  -1.825   1.705  1.00  0.00    -0.298 N 
ATOM     37  C   UNL     1       3.795   0.790  -3.160  1.00  0.00     0.133 A 
ATOM     38  C   UNL     1       3.487   0.642  -0.696  1.00  0.00     0.032 A 
ATOM     39  N   UNL     1       3.367   0.271   1.738  1.00  0.00    -0.228 NA
ATOM     40  C   UNL     1       3.801  -0.823   2.446  1.00  0.00     0.138 A 
ATOM     41  C   UNL     1       4.856  -2.978   2.253  1.00  0.00     0.094 A 
ATOM     42  C   UNL     1       3.029   1.972  -3.182  1.00  0.00     0.035 A 
ATOM     43  C   UNL     1       2.936   1.957  -0.744  1.00  0.00     0.079 A 
ATOM     44  C   UNL     1       3.804  -0.897   3.840  1.00  0.00     0.051 A 
ATOM     45  C   UNL     1       4.875  -3.094   3.629  1.00  0.00     0.022 A 
ATOM     46  C   UNL     1       2.580   2.487  -1.981  1.00  0.00     0.143 A 
ATOM     47  C   UNL     1       2.785   2.676  -4.493  1.00  0.00     0.052 C 
ATOM     48  C   UNL     1       1.999   2.603   0.215  1.00  0.00     0.251 C 
ATOM     49  C   UNL     1       4.355  -2.054   4.444  1.00  0.00    -0.046 A 
ATOM     50  O   UNL     1       1.485   3.339  -1.894  1.00  0.00    -0.444 OA
ATOM     51  C   UNL     1       0.855   3.173  -0.605  1.00  0.00     0.312 C 
ATOM     52  O   UNL     1       2.202   2.754   1.439  1.00  0.00    -0.285 OA
ATOM     53  C   UNL     1       4.445  -2.123   5.953  1.00  0.00     0.044 C 
ATOM     54  C   UNL     1      -0.174   2.045  -0.691  1.00  0.00     0.116 C 
BRANCH  32  55
ATOM     55  O   UNL     1       4.758  -1.850  -3.195  1.00  0.00    -0.505 OA
ATOM     56  H   UNL     1       4.748  -2.862  -3.317  1.00  0.00     0.293 HD
ENDBRANCH  32  55
BRANCH  37  57
ATOM     57  O   UNL     1       4.427   0.330  -4.322  1.00  0.00    -0.507 OA
ATOM     58  H   UNL     1       4.551   0.869  -5.176  1.00  0.00     0.293 HD
ENDBRANCH  37  57
BRANCH  51  59
ATOM     59  O   UNL     1       0.314   4.426  -0.110  1.00  0.00    -0.454 OA
BRANCH  59  60
ATOM     60  C   UNL     1      -1.083   4.619   0.089  1.00  0.00     0.191 C 
ATOM     61  C   UNL     1      -2.035   4.224  -0.760  1.00  0.00     0.043 CG0
ATOM     62  G   UNL     1      -3.523   4.158  -0.473  1.00  0.00     0.000 G0
ENDBRANCH  59  60
ENDBRANCH  51  59
ENDBRANCH  28  31
ENDBRANCH  25  27
ENDBRANCH  23  24
ENDBRANCH  20  22
ENDBRANCH   1  20
BRANCH   1  63
ATOM     63  O   UNL     1      -2.169  -2.913   0.236  1.00  0.00    -0.392 OA
ATOM     64  H   UNL     1      -3.133  -2.950   0.079  1.00  0.00     0.210 HD
ENDBRANCH   1  63
TORSDOF 7
