REMARK SMILES S=c1nc[nH]c2nc[nH]c12
REMARK SMILES IDX 1 1 2 2 3 3 4 4 5 5 6 6 10 7 9 8 8 9 7 10
REMARK H PARENT 5 11 9 12
REMARK Flexibility Score: inf
ROOT
ATOM      1  S   UNL     1      -0.003   3.078   0.309  1.00  0.00    -0.056 S 
ATOM      2  C   UNL     1      -0.483   1.520   0.170  1.00  0.00     0.155 A 
ATOM      3  N   UNL     1      -1.811   1.203   0.188  1.00  0.00    -0.225 NA
ATOM      4  C   UNL     1      -2.237  -0.096   0.074  1.00  0.00     0.200 A 
ATOM      5  N   UNL     1      -1.331  -1.113  -0.062  1.00  0.00    -0.329 N 
ATOM      6  C   UNL     1      -0.012  -0.799  -0.080  1.00  0.00     0.159 A 
ATOM      7  C   UNL     1       0.426   0.476   0.032  1.00  0.00     0.120 A 
ATOM      8  N   UNL     1       1.764   0.488  -0.017  1.00  0.00    -0.341 N 
ATOM      9  C   UNL     1       2.093  -0.821  -0.160  1.00  0.00     0.199 A 
ATOM     10  N   UNL     1       1.017  -1.654  -0.204  1.00  0.00    -0.219 NA
ATOM     11  H   UNL     1      -1.649  -2.104  -0.149  1.00  0.00     0.169 HD
ATOM     12  H   UNL     1       2.409   1.306   0.041  1.00  0.00     0.168 HD
ENDROOT
TORSDOF 0
