REMARK SMILES CCCCCON=O
REMARK SMILES IDX 4 1 3 2 2 3 1 4 5 5 6 6 7 7 8 8
REMARK H PARENT
REMARK Flexibility Score: inf
ROOT
ATOM      1  C   UNL     1       0.660  -1.262  -0.202  1.00  0.00     0.045 C 
ENDROOT
BRANCH   1   2
ATOM      2  C   UNL     1      -0.658  -0.527  -0.498  1.00  0.00     0.003 C 
BRANCH   2   3
ATOM      3  C   UNL     1      -1.249   0.154   0.745  1.00  0.00    -0.003 C 
ATOM      4  C   UNL     1      -2.623   0.746   0.445  1.00  0.00     0.004 C 
ENDBRANCH   2   3
ENDBRANCH   1   2
BRANCH   1   5
ATOM      5  C   UNL     1       1.829  -0.321   0.105  1.00  0.00     0.267 C 
BRANCH   5   6
ATOM      6  O   UNL     1       2.065   0.551  -0.996  1.00  0.00    -0.364 OA
BRANCH   6   7
ATOM      7  N   UNL     1       3.071   1.497  -0.977  1.00  0.00     0.155 NA
ATOM      8  O   UNL     1       3.821   1.630   0.013  1.00  0.00    -0.106 OA
ENDBRANCH   6   7
ENDBRANCH   5   6
ENDBRANCH   1   5
TORSDOF 5
