REMARK SMILES NNc1nncc2ccccc12
REMARK SMILES IDX 2 1 1 3 3 6 4 7 12 8 5 9 7 10 11 11 6 12 8 13 10 14 9 15
REMARK H PARENT 2 2 1 4 1 5
REMARK Flexibility Score: inf
ROOT
ATOM      1  N   UNL     1       2.254  -1.045  -0.095  1.00  0.00    -0.306 N 
ATOM      2  H   UNL     1       1.939  -2.005  -0.342  1.00  0.00     0.183 HD
ENDROOT
BRANCH   1   3
ATOM      3  N   UNL     1       3.636  -0.856   0.070  1.00  0.00    -0.249 NA
ATOM      4  H   UNL     1       3.947  -0.141  -0.627  1.00  0.00     0.143 HD
ATOM      5  H   UNL     1       3.793  -0.467   1.028  1.00  0.00     0.143 HD
ENDBRANCH   1   3
BRANCH   1   6
ATOM      6  C   UNL     1       1.328   0.052   0.039  1.00  0.00     0.170 A 
ATOM      7  N   UNL     1       1.828   1.304   0.234  1.00  0.00    -0.131 NA
ATOM      8  C   UNL     1      -0.079  -0.117  -0.031  1.00  0.00     0.029 A 
ATOM      9  N   UNL     1       1.046   2.376   0.354  1.00  0.00    -0.156 NA
ATOM     10  C   UNL     1      -0.898   1.033   0.093  1.00  0.00     0.006 A 
ATOM     11  C   UNL     1      -0.703  -1.372  -0.209  1.00  0.00     0.013 A 
ATOM     12  C   UNL     1      -0.303   2.281   0.287  1.00  0.00     0.144 A 
ATOM     13  C   UNL     1      -2.295   0.920   0.028  1.00  0.00     0.010 A 
ATOM     14  C   UNL     1      -2.096  -1.469  -0.272  1.00  0.00     0.001 A 
ATOM     15  C   UNL     1      -2.889  -0.328  -0.156  1.00  0.00     0.001 A 
ENDBRANCH   1   6
TORSDOF 2
