REMARK SMILES CC(O)(CS(=O)(=O)c1ccc(F)cc1)C(=O)Nc1ccc(C#N)c(C(F)(F)F)c1
REMARK SMILES IDX 1 1 2 2 3 3 4 5 5 6 6 7 7 8 8 9 9 10 14 11 10 12 13 13 11 14
REMARK SMILES IDX 12 15 15 16 16 17 17 18 18 20 29 21 19 22 24 23 20 24 21 25
REMARK SMILES IDX 25 26 26 27 27 28 28 29 22 30 23 31
REMARK H PARENT 3 4 17 19
REMARK Flexibility Score: inf
ROOT
ATOM      1  C   UNL     1      -1.151  -3.609  -1.399  1.00  0.00     0.054 C 
ATOM      2  C   UNL     1      -0.692  -2.647  -0.279  1.00  0.00     0.154 C 
ENDROOT
BRANCH   2   3
ATOM      3  O   UNL     1      -0.382  -3.414   0.862  1.00  0.00    -0.379 OA
ATOM      4  H   UNL     1       0.385  -4.006   0.638  1.00  0.00     0.212 HD
ENDBRANCH   2   3
BRANCH   2   5
ATOM      5  C   UNL     1      -1.843  -1.687   0.121  1.00  0.00     0.187 C 
BRANCH   5   6
ATOM      6  S   UNL     1      -2.448  -0.609  -1.184  1.00  0.00     0.181 S 
ATOM      7  O   UNL     1      -1.318   0.022  -1.947  1.00  0.00    -0.224 OA
ATOM      8  O   UNL     1      -3.305  -1.387  -2.142  1.00  0.00    -0.224 OA
BRANCH   6   9
ATOM      9  C   UNL     1      -3.411   0.664  -0.440  1.00  0.00     0.067 A 
ATOM     10  C   UNL     1      -4.805   0.540  -0.349  1.00  0.00     0.023 A 
ATOM     11  C   UNL     1      -2.780   1.796   0.095  1.00  0.00     0.023 A 
ATOM     12  C   UNL     1      -5.561   1.548   0.258  1.00  0.00     0.040 A 
ATOM     13  C   UNL     1      -3.538   2.802   0.702  1.00  0.00     0.040 A 
ATOM     14  C   UNL     1      -4.928   2.679   0.782  1.00  0.00     0.123 A 
ATOM     15  F   UNL     1      -5.662   3.655   1.372  1.00  0.00    -0.207 F 
ENDBRANCH   6   9
ENDBRANCH   5   6
ENDBRANCH   2   5
BRANCH   2  16
ATOM     16  C   UNL     1       0.542  -1.856  -0.688  1.00  0.00     0.257 C 
ATOM     17  O   UNL     1       0.900  -1.821  -1.898  1.00  0.00    -0.271 OA
ATOM     18  N   UNL     1       1.268  -1.104   0.300  1.00  0.00    -0.324 N 
ATOM     19  H   UNL     1       0.838  -0.987   1.245  1.00  0.00     0.170 HD
BRANCH  18  20
ATOM     20  C   UNL     1       2.481  -0.383   0.026  1.00  0.00     0.041 A 
ATOM     21  C   UNL     1       2.704   0.849   0.657  1.00  0.00     0.040 A 
ATOM     22  C   UNL     1       3.470  -0.913  -0.814  1.00  0.00     0.027 A 
ATOM     23  C   UNL     1       3.888   1.579   0.430  1.00  0.00     0.075 A 
ATOM     24  C   UNL     1       4.649  -0.205  -1.049  1.00  0.00     0.022 A 
ATOM     25  C   UNL     1       4.865   1.037  -0.440  1.00  0.00     0.064 A 
BRANCH  23  26
ATOM     26  C   UNL     1       4.106   2.917   1.108  1.00  0.00     0.417 C 
ATOM     27  F   UNL     1       3.036   3.269   1.912  1.00  0.00    -0.166 F 
ATOM     28  F   UNL     1       4.271   3.901   0.150  1.00  0.00    -0.166 F 
ATOM     29  F   UNL     1       5.241   2.857   1.897  1.00  0.00    -0.166 F 
ENDBRANCH  23  26
BRANCH  25  30
ATOM     30  C   UNL     1       6.101   1.731  -0.715  1.00  0.00     0.100 C 
ATOM     31  N   UNL     1       7.092   2.287  -0.936  1.00  0.00    -0.192 NA
ENDBRANCH  25  30
ENDBRANCH  18  20
ENDBRANCH   2  16
TORSDOF 8
