REMARK SMILES c1csc(C2(N3CCCCC3)CCCCC2)c1
REMARK SMILES IDX 5 1 12 2 13 3 14 4 15 5 16 6 6 7 9 8 8 9 10 10 7 11 11 12
REMARK SMILES IDX 4 13 17 14 3 15 1 16 2 17
REMARK H PARENT
REMARK Flexibility Score: inf
ROOT
ATOM      1  C   UNL     1      -0.628  -0.077   0.052  1.00  0.00     0.055 C 
ATOM      2  C   UNL     1      -1.455  -0.186  -1.297  1.00  0.00     0.028 C 
ATOM      3  C   UNL     1      -2.193  -1.520  -1.467  1.00  0.00     0.002 C 
ATOM      4  C   UNL     1      -3.252  -1.709  -0.367  1.00  0.00     0.000 C 
ATOM      5  C   UNL     1      -2.824  -1.092   0.977  1.00  0.00     0.002 C 
ATOM      6  C   UNL     1      -1.297  -1.051   1.098  1.00  0.00     0.028 C 
ENDROOT
BRANCH   1   7
ATOM      7  N   UNL     1       0.808  -0.470  -0.202  1.00  0.00    -0.293 NA
ATOM      8  C   UNL     1       3.744  -0.509  -0.288  1.00  0.00     0.003 C 
ATOM      9  C   UNL     1       2.943  -1.422   0.641  1.00  0.00     0.016 C 
ATOM     10  C   UNL     1       2.893  -0.089  -1.487  1.00  0.00     0.016 C 
ATOM     11  C   UNL     1       1.600  -0.782   1.020  1.00  0.00     0.085 C 
ATOM     12  C   UNL     1       1.575   0.522  -1.008  1.00  0.00     0.085 C 
ENDBRANCH   1   7
BRANCH   1  13
ATOM     13  C   UNL     1      -0.707   1.365   0.585  1.00  0.00     0.025 A 
ATOM     14  C   UNL     1      -0.776   2.532  -0.182  1.00  0.00     0.017 A 
ATOM     15  S   UNL     1      -0.534   1.848   2.196  1.00  0.00    -0.147 S 
ATOM     16  C   UNL     1      -0.726   3.713   0.569  1.00  0.00     0.012 A 
ATOM     17  C   UNL     1      -0.593   3.504   1.933  1.00  0.00     0.065 A 
ENDBRANCH   1  13
TORSDOF 2
