REMARK SMILES C#C[C@]1(O)CC[C@H]2[C@@H]3CCC4=Cc5oncc5C[C@]4(C)[C@H]3CC[C@@]21C
REMARK SMILES IDX 7 1 6 2 5 3 3 4 24 5 25 6 23 7 22 8 21 9 8 10 9 11 10 12
REMARK SMILES IDX 11 13 12 14 13 15 17 16 18 17 19 18 20 19 16 20 15 21 14 22
REMARK SMILES IDX 4 23 2 25 1 26
REMARK H PARENT 4 24
REMARK Flexibility Score: inf
ROOT
ATOM      1  C   UNL     1      -1.755  -0.779  -0.254  1.00  0.00     0.002 C 
ATOM      2  C   UNL     1      -2.642  -1.966  -0.621  1.00  0.00     0.008 C 
ATOM      3  C   UNL     1      -4.011  -1.344  -0.965  1.00  0.00     0.050 C 
ATOM      4  C   UNL     1      -3.814   0.204  -0.971  1.00  0.00     0.130 C 
ATOM      5  C   UNL     1      -2.268   0.378  -1.126  1.00  0.00     0.011 C 
ATOM      6  C   UNL     1      -1.879   0.222  -2.635  1.00  0.00     0.016 C 
ATOM      7  C   UNL     1      -1.657   1.694  -0.575  1.00  0.00     0.011 C 
ATOM      8  C   UNL     1      -0.112   1.637  -0.561  1.00  0.00     0.005 C 
ATOM      9  C   UNL     1       0.450   0.376   0.174  1.00  0.00     0.003 C 
ATOM     10  C   UNL     1      -0.221  -0.952  -0.314  1.00  0.00    -0.003 C 
ATOM     11  C   UNL     1       0.227  -2.116   0.586  1.00  0.00     0.008 C 
ATOM     12  C   UNL     1       1.741  -2.304   0.532  1.00  0.00     0.032 C 
ATOM     13  C   UNL     1       2.467  -1.024   0.867  1.00  0.00    -0.060 C 
ATOM     14  C   UNL     1       3.639  -1.114   1.533  1.00  0.00     0.050 C 
ATOM     15  C   UNL     1       4.423   0.092   1.768  1.00  0.00     0.162 A 
ATOM     16  C   UNL     1       3.973   1.323   1.432  1.00  0.00     0.020 A 
ATOM     17  C   UNL     1       2.588   1.565   0.937  1.00  0.00     0.052 C 
ATOM     18  C   UNL     1       2.025   0.300   0.183  1.00  0.00    -0.004 C 
ATOM     19  C   UNL     1       2.612   0.289  -1.252  1.00  0.00     0.017 C 
ATOM     20  C   UNL     1       4.955   2.187   1.861  1.00  0.00     0.162 A 
ATOM     21  N   UNL     1       5.957   1.454   2.396  1.00  0.00    -0.088 NA
ATOM     22  O   UNL     1       5.604   0.199   2.325  1.00  0.00    -0.357 OA
ENDROOT
BRANCH   4  23
ATOM     23  O   UNL     1      -4.538   0.849  -1.998  1.00  0.00    -0.377 OA
ATOM     24  H   UNL     1      -4.518   0.292  -2.818  1.00  0.00     0.212 HD
ENDBRANCH   4  23
BRANCH   4  25
ATOM     25  C   UNL     1      -4.313   0.749   0.312  1.00  0.00    -0.071 C 
ATOM     26  C   UNL     1      -4.722   1.191   1.357  1.00  0.00     0.007 C 
ENDBRANCH   4  25
TORSDOF 2
