REMARK SMILES CO/N=C(\C(=O)N[C@@H]1C(=O)N2C(C(=O)O)=C(CSc3nc(=O)c(=O)[nH]n3C)CS[C@H]12)c1csc(N)n1
REMARK SMILES IDX 30 1 29 2 28 3 16 4 12 5 11 6 9 7 10 8 8 9 7 10 5 11 6 13
REMARK SMILES IDX 4 14 3 15 31 16 32 17 36 18 33 19 34 20 35 21 2 24 1 25
REMARK SMILES IDX 13 26 14 27 15 28 17 30 18 31 19 32 20 33 26 34 21 35 25 36
REMARK SMILES IDX 27 37 22 38 23 39 24 41
REMARK H PARENT 7 12 35 22 35 23 15 29 25 40
REMARK Flexibility Score: inf
ROOT
ATOM      1  C   UNL     1      -0.712   0.559  -2.265  1.00  0.00     0.181 C 
ATOM      2  S   UNL     1      -0.848   1.493  -0.704  1.00  0.00    -0.129 SA
ATOM      3  C   UNL     1       0.945   1.893  -0.684  1.00  0.00     0.106 C 
ATOM      4  C   UNL     1       1.859   0.671  -0.664  1.00  0.00    -0.019 C 
ATOM      5  C   UNL     1       1.552  -0.430  -1.401  1.00  0.00     0.132 C 
ATOM      6  N   UNL     1       0.302  -0.447  -2.090  1.00  0.00    -0.289 N 
ATOM      7  C   UNL     1      -0.676  -1.472  -2.522  1.00  0.00     0.253 C 
ATOM      8  O   UNL     1      -0.644  -2.717  -2.704  1.00  0.00    -0.272 OA
ATOM      9  C   UNL     1      -1.735  -0.414  -2.598  1.00  0.00     0.206 C 
ENDROOT
BRANCH   9  10
ATOM     10  N   UNL     1      -2.756  -0.620  -1.566  1.00  0.00    -0.336 N 
ATOM     11  C   UNL     1      -4.127  -0.890  -1.890  1.00  0.00     0.276 C 
ATOM     12  H   UNL     1      -2.470  -0.695  -0.562  1.00  0.00     0.164 HD
ATOM     13  O   UNL     1      -4.451  -1.190  -3.070  1.00  0.00    -0.267 OA
BRANCH  11  14
ATOM     14  C   UNL     1      -5.167  -0.825  -0.837  1.00  0.00     0.193 C 
ATOM     15  N   UNL     1      -6.122  -1.706  -0.783  1.00  0.00    -0.079 NA
BRANCH  14  16
ATOM     16  C   UNL     1      -5.137   0.261   0.167  1.00  0.00     0.111 A 
ATOM     17  C   UNL     1      -6.011   0.325   1.255  1.00  0.00     0.099 A 
ATOM     18  N   UNL     1      -4.265   1.304   0.076  1.00  0.00    -0.218 NA
ATOM     19  S   UNL     1      -5.666   1.723   2.128  1.00  0.00    -0.105 S 
ATOM     20  C   UNL     1      -4.435   2.184   1.086  1.00  0.00     0.180 A 
BRANCH  20  21
ATOM     21  N   UNL     1      -3.648   3.363   1.229  1.00  0.00    -0.375 N 
ATOM     22  H   UNL     1      -2.906   3.591   0.531  1.00  0.00     0.159 HD
ATOM     23  H   UNL     1      -3.814   4.011   2.029  1.00  0.00     0.159 HD
ENDBRANCH  20  21
ENDBRANCH  14  16
BRANCH  15  24
ATOM     24  O   UNL     1      -6.212  -2.759  -1.665  1.00  0.00    -0.398 OA
ATOM     25  C   UNL     1      -7.242  -3.721  -1.525  1.00  0.00     0.315 C 
ENDBRANCH  15  24
ENDBRANCH  11  14
ENDBRANCH   9  10
BRANCH   5  26
ATOM     26  C   UNL     1       2.412  -1.630  -1.505  1.00  0.00     0.352 C 
ATOM     27  O   UNL     1       2.387  -2.317  -2.560  1.00  0.00    -0.245 OA
BRANCH  26  28
ATOM     28  O   UNL     1       3.223  -2.039  -0.452  1.00  0.00    -0.477 OA
ATOM     29  H   UNL     1       3.806  -2.864  -0.530  1.00  0.00     0.297 HD
ENDBRANCH  26  28
ENDBRANCH   5  26
BRANCH   4  30
ATOM     30  C   UNL     1       3.160   0.816   0.089  1.00  0.00     0.112 C 
BRANCH  30  31
ATOM     31  S   UNL     1       2.995   0.087   1.754  1.00  0.00    -0.082 SA
BRANCH  31  32
ATOM     32  C   UNL     1       4.539   0.787   2.357  1.00  0.00     0.186 A 
ATOM     33  N   UNL     1       4.505   2.021   2.921  1.00  0.00    -0.179 NA
ATOM     34  N   UNL     1       5.729   0.111   2.277  1.00  0.00    -0.265 N 
ATOM     35  C   UNL     1       5.631   2.606   3.392  1.00  0.00     0.339 A 
ATOM     36  N   UNL     1       6.854   0.689   2.722  1.00  0.00    -0.257 N 
ATOM     37  C   UNL     1       5.795  -1.226   1.679  1.00  0.00     0.174 C 
ATOM     38  O   UNL     1       5.573   3.751   3.916  1.00  0.00    -0.261 OA
ATOM     39  C   UNL     1       6.840   1.927   3.286  1.00  0.00     0.330 A 
ATOM     40  H   UNL     1       7.770   0.192   2.636  1.00  0.00     0.192 HD
ATOM     41  O   UNL     1       7.909   2.447   3.704  1.00  0.00    -0.262 OA
ENDBRANCH  31  32
ENDBRANCH  30  31
ENDBRANCH   4  30
TORSDOF 10
