REMARK SMILES C[C@]12CCC(=O)C=C1CC[C@@H]1[C@@H]2CC[C@]2(C)C(=O)CC[C@@H]12
REMARK SMILES IDX 21 1 20 2 19 3 17 4 18 5 15 6 16 7 14 8 13 9 12 10 11 11
REMARK SMILES IDX 10 12 9 13 8 14 7 15 5 16 6 17 4 18 3 19 2 20 1 21
REMARK H PARENT
REMARK Flexibility Score: inf
ROOT
ATOM      1  C   UNL     1       1.926   0.302   0.668  1.00  0.00     0.006 C 
ATOM      2  C   UNL     1       2.840   0.856   1.767  1.00  0.00     0.013 C 
ATOM      3  C   UNL     1       4.227   0.872   1.098  1.00  0.00     0.076 C 
ATOM      4  C   UNL     1       3.921   0.854  -0.369  1.00  0.00     0.139 C 
ATOM      5  O   UNL     1       4.778   0.847  -1.239  1.00  0.00    -0.299 OA
ATOM      6  C   UNL     1       2.455   0.927  -0.637  1.00  0.00     0.029 C 
ATOM      7  C   UNL     1       2.117   2.432  -0.840  1.00  0.00     0.020 C 
ATOM      8  C   UNL     1       1.930   0.086  -1.817  1.00  0.00     0.015 C 
ATOM      9  C   UNL     1       0.378   0.031  -1.810  1.00  0.00     0.006 C 
ATOM     10  C   UNL     1      -0.209  -0.409  -0.430  1.00  0.00     0.002 C 
ATOM     11  C   UNL     1       0.390   0.418   0.761  1.00  0.00    -0.003 C 
ATOM     12  C   UNL     1      -0.189  -0.012   2.141  1.00  0.00     0.008 C 
ATOM     13  C   UNL     1      -1.133  -1.221   2.098  1.00  0.00     0.032 C 
ATOM     14  C   UNL     1      -2.149  -1.138   0.978  1.00  0.00    -0.060 C 
ATOM     15  C   UNL     1      -3.313  -1.795   1.123  1.00  0.00     0.047 C 
ATOM     16  C   UNL     1      -4.233  -2.001  -0.006  1.00  0.00     0.155 C 
ATOM     17  O   UNL     1      -5.364  -2.516   0.204  1.00  0.00    -0.295 OA
ATOM     18  C   UNL     1      -3.849  -1.611  -1.402  1.00  0.00     0.081 C 
ATOM     19  C   UNL     1      -2.341  -1.337  -1.524  1.00  0.00     0.019 C 
ATOM     20  C   UNL     1      -1.777  -0.475  -0.353  1.00  0.00    -0.008 C 
ATOM     21  C   UNL     1      -2.413   0.939  -0.401  1.00  0.00     0.016 C 
ENDROOT
TORSDOF 0
