REMARK SMILES O=C1CN=C(c2ccccc2Cl)c2cc(Cl)ccc2N1
REMARK SMILES IDX 16 1 15 2 14 3 13 4 19 5 18 6 17 7 5 8 4 9 6 10 7 11 11 12
REMARK SMILES IDX 8 13 10 14 12 15 9 16 3 17 20 19 2 20 1 22
REMARK H PARENT 20 21
REMARK Flexibility Score: 90.00
ROOT
ATOM      1  Cl  UNL     1      -0.860   4.236   1.461  1.00  0.00    -0.084 Cl
ATOM      2  C   UNL     1      -1.348   2.705   0.757  1.00  0.00     0.041 A 
ATOM      3  C   UNL     1      -0.491   1.604   0.817  1.00  0.00     0.033 A 
ATOM      4  C   UNL     1      -0.862   0.367   0.256  1.00  0.00     0.025 A 
ATOM      5  C   UNL     1      -2.137   0.248  -0.361  1.00  0.00     0.050 A 
ATOM      6  C   UNL     1      -2.975   1.373  -0.431  1.00  0.00     0.028 A 
ATOM      7  C   UNL     1      -2.586   2.590   0.128  1.00  0.00     0.023 A 
ENDROOT
BRANCH   4   8
ATOM      8  C   UNL     1       0.135  -0.746   0.280  1.00  0.00     0.076 C 
ATOM      9  N   UNL     1      -0.205  -1.973   0.550  1.00  0.00    -0.274 NA
BRANCH   8  10
ATOM     10  C   UNL     1       1.561  -0.457  -0.013  1.00  0.00     0.019 A 
ATOM     11  C   UNL     1       1.880   0.354  -1.118  1.00  0.00     0.012 A 
ATOM     12  C   UNL     1       2.610  -0.978   0.781  1.00  0.00     0.050 A 
ATOM     13  C   UNL     1       3.211   0.635  -1.433  1.00  0.00     0.001 A 
ATOM     14  C   UNL     1       3.941  -0.688   0.454  1.00  0.00     0.021 A 
ATOM     15  Cl  UNL     1       2.305  -1.937   2.226  1.00  0.00    -0.084 Cl
ATOM     16  C   UNL     1       4.241   0.113  -0.650  1.00  0.00     0.002 A 
ENDBRANCH   8  10
BRANCH   9  17
ATOM     17  C   UNL     1      -1.556  -2.423   0.847  1.00  0.00     0.243 CG0
ATOM     18  G   UNL     1      -2.401  -2.264  -0.372  1.00  0.00     0.000 G0
ENDBRANCH   9  17
ENDBRANCH   4   8
BRANCH   5  19
ATOM     19  N   UNL     1      -2.595  -0.975  -0.963  1.00  0.00    -0.324 N 
ATOM     20  C   UNL     1      -2.401  -2.264  -0.372  1.00  0.00     0.246 CG0
ATOM     21  H   UNL     1      -3.263  -0.912  -1.765  1.00  0.00     0.170 HD
ATOM     22  O   UNL     1      -2.945  -3.276  -0.890  1.00  0.00    -0.273 OA
ATOM     23  G   UNL     1      -1.556  -2.423   0.847  1.00  0.00     0.000 G0
ENDBRANCH   5  19
TORSDOF 1
