REMARK SMILES CC(=O)c1ccc2c(c1)N(CCCN1CCN(CCO)CC1)c1ccccc1S2
REMARK SMILES IDX 13 1 12 2 11 3 10 4 4 5 5 6 9 7 6 8 8 9 7 10 29 11 23 12
REMARK SMILES IDX 28 13 24 14 27 15 25 16 26 17 2 18 1 19 3 20 14 21 15 22
REMARK SMILES IDX 22 23 16 24 21 25 17 26 18 27 19 28 20 29
REMARK H PARENT 20 30
REMARK Flexibility Score: inf
ROOT
ATOM      1  C   UNL     1       0.795   0.842   0.869  1.00  0.00     0.086 C 
ENDROOT
BRANCH   1   2
ATOM      2  C   UNL     1      -0.239   1.912   0.472  1.00  0.00     0.037 C 
BRANCH   2   3
ATOM      3  C   UNL     1      -1.030   1.547  -0.793  1.00  0.00     0.124 C 
BRANCH   3   4
ATOM      4  N   UNL     1      -1.770   0.285  -0.622  1.00  0.00    -0.340 N 
ATOM      5  C   UNL     1      -4.945   0.978   1.297  1.00  0.00     0.019 A 
ATOM      6  C   UNL     1      -5.091  -0.249   1.972  1.00  0.00     0.013 A 
ATOM      7  C   UNL     1      -3.818   1.169   0.474  1.00  0.00     0.039 A 
ATOM      8  C   UNL     1      -4.125  -1.249   1.845  1.00  0.00     0.018 A 
ATOM      9  C   UNL     1      -2.842   0.165   0.341  1.00  0.00     0.056 A 
ATOM     10  C   UNL     1      -2.997  -1.039   1.050  1.00  0.00     0.036 A 
ATOM     11  S   UNL     1      -1.690  -2.269   1.009  1.00  0.00    -0.086 SA
ATOM     12  C   UNL     1      -1.418  -0.893  -1.383  1.00  0.00     0.055 A 
ATOM     13  C   UNL     1      -1.484  -2.158  -0.769  1.00  0.00     0.036 A 
ATOM     14  C   UNL     1      -1.159  -0.816  -2.763  1.00  0.00     0.027 A 
ATOM     15  C   UNL     1      -1.307  -3.321  -1.525  1.00  0.00     0.017 A 
ATOM     16  C   UNL     1      -0.956  -1.980  -3.509  1.00  0.00     0.002 A 
ATOM     17  C   UNL     1      -1.037  -3.231  -2.893  1.00  0.00     0.001 A 
BRANCH   5  18
ATOM     18  C   UNL     1      -5.964   2.056   1.425  1.00  0.00     0.159 C 
ATOM     19  C   UNL     1      -7.239   1.855   2.189  1.00  0.00     0.093 C 
ATOM     20  O   UNL     1      -5.762   3.176   0.884  1.00  0.00    -0.295 OA
ENDBRANCH   5  18
ENDBRANCH   3   4
ENDBRANCH   2   3
ENDBRANCH   1   2
BRANCH   1  21
ATOM     21  N   UNL     1       1.633   0.438  -0.280  1.00  0.00    -0.301 NA
ATOM     22  C   UNL     1       2.166  -0.928  -0.089  1.00  0.00     0.100 C 
ATOM     23  C   UNL     1       2.680   1.440  -0.606  1.00  0.00     0.100 C 
ATOM     24  C   UNL     1       3.315  -1.213  -1.066  1.00  0.00     0.100 C 
ATOM     25  C   UNL     1       4.087   0.977  -0.199  1.00  0.00     0.100 C 
ATOM     26  N   UNL     1       4.463  -0.283  -0.885  1.00  0.00    -0.299 NA
BRANCH  26  27
ATOM     27  C   UNL     1       5.598  -0.955  -0.212  1.00  0.00     0.112 C 
BRANCH  27  28
ATOM     28  C   UNL     1       6.889  -0.130  -0.292  1.00  0.00     0.171 C 
BRANCH  28  29
ATOM     29  O   UNL     1       6.917   0.831   0.728  1.00  0.00    -0.395 OA
ATOM     30  H   UNL     1       7.741   1.364   0.582  1.00  0.00     0.210 HD
ENDBRANCH  28  29
ENDBRANCH  27  28
ENDBRANCH  26  27
ENDBRANCH   1  21
TORSDOF 8
