REMARK SMILES CCCC(C)(O)C1C[C@@]23C=CC1(OC)C1Oc4c(O)ccc5c4[C@@]12CCN(C)[C@@H]3C5
REMARK SMILES IDX 4 1 5 2 7 3 29 4 30 5 27 6 9 7 22 8 26 9 28 10 24 11 8 12
REMARK SMILES IDX 10 13 23 14 21 15 25 16 15 17 11 18 17 19 20 20 16 21 12 22
REMARK SMILES IDX 18 23 13 24 14 25 19 26 6 28 3 30 2 31 1 32
REMARK H PARENT 19 27 6 29
REMARK Flexibility Score: inf
ROOT
ATOM      1  C   UNL     1       2.549   1.062  -0.211  1.00  0.00     0.068 C 
ATOM      2  C   UNL     1       2.665   2.433  -0.946  1.00  0.00     0.042 C 
ENDROOT
BRANCH   1   3
ATOM      3  C   UNL     1       1.412   0.161  -0.855  1.00  0.00     0.061 C 
ATOM      4  C   UNL     1      -2.499   0.774  -1.550  1.00  0.00     0.071 C 
ATOM      5  C   UNL     1      -3.746  -0.161  -1.268  1.00  0.00     0.056 C 
ATOM      6  N   UNL     1      -2.627   2.110  -0.911  1.00  0.00    -0.302 NA
ATOM      7  C   UNL     1      -1.170   0.128  -1.057  1.00  0.00     0.018 C 
ATOM      8  C   UNL     1      -3.591  -1.079  -0.063  1.00  0.00    -0.038 A 
ATOM      9  C   UNL     1      -2.802   2.039   0.556  1.00  0.00     0.085 C 
ATOM     10  C   UNL     1      -3.658   2.955  -1.534  1.00  0.00     0.105 C 
ATOM     11  C   UNL     1      -1.318  -0.059   0.479  1.00  0.00     0.051 C 
ATOM     12  C   UNL     1       0.121   0.963  -1.318  1.00  0.00     0.024 C 
ATOM     13  C   UNL     1      -0.901  -1.241  -1.679  1.00  0.00    -0.019 C 
ATOM     14  C   UNL     1      -2.426  -1.020   0.703  1.00  0.00     0.012 A 
ATOM     15  C   UNL     1      -4.464  -2.161   0.164  1.00  0.00     0.008 A 
ATOM     16  C   UNL     1      -1.647   1.267   1.221  1.00  0.00     0.032 C 
ATOM     17  C   UNL     1      -0.077  -0.811   1.081  1.00  0.00     0.221 C 
ATOM     18  C   UNL     1       0.131  -1.913  -1.139  1.00  0.00     0.008 C 
ATOM     19  C   UNL     1      -1.987  -2.094   1.415  1.00  0.00     0.165 A 
ATOM     20  C   UNL     1      -4.096  -3.192   1.057  1.00  0.00     0.050 A 
ATOM     21  O   UNL     1      -0.633  -1.991   1.687  1.00  0.00    -0.482 OA
ATOM     22  C   UNL     1       0.946  -1.165  -0.084  1.00  0.00     0.129 C 
ATOM     23  C   UNL     1      -2.821  -3.187   1.657  1.00  0.00     0.158 A 
BRANCH  22  24
ATOM     24  O   UNL     1       2.034  -2.024   0.255  1.00  0.00    -0.370 OA
ATOM     25  C   UNL     1       2.417  -2.008   1.615  1.00  0.00     0.196 C 
ENDBRANCH  22  24
BRANCH  23  26
ATOM     26  O   UNL     1      -2.401  -4.265   2.433  1.00  0.00    -0.504 OA
ATOM     27  H   UNL     1      -1.483  -4.281   2.861  1.00  0.00     0.293 HD
ENDBRANCH  23  26
ENDBRANCH   1   3
BRANCH   1  28
ATOM     28  O   UNL     1       2.283   1.287   1.151  1.00  0.00    -0.390 OA
ATOM     29  H   UNL     1       1.493   1.880   1.218  1.00  0.00     0.211 HD
ENDBRANCH   1  28
BRANCH   1  30
ATOM     30  C   UNL     1       3.946   0.368  -0.360  1.00  0.00     0.035 C 
BRANCH  30  31
ATOM     31  C   UNL     1       4.988   0.826   0.678  1.00  0.00    -0.000 C 
ATOM     32  C   UNL     1       6.345   0.175   0.422  1.00  0.00     0.004 C 
ENDBRANCH  30  31
ENDBRANCH   1  30
TORSDOF 6
