REMARK SMILES CN(C)CCc1c[nH]c2ccccc12
REMARK SMILES IDX 4 1 2 2 1 3 3 4 5 5 6 6 7 7 14 8 8 9 9 10 13 11 10 13 12 14
REMARK SMILES IDX 11 15
REMARK H PARENT 8 12
REMARK Flexibility Score: inf
ROOT
ATOM      1  C   UNL     1      -1.553   0.371   0.628  1.00  0.00     0.088 C 
ENDROOT
BRANCH   1   2
ATOM      2  N   UNL     1      -2.973   0.554   0.249  1.00  0.00    -0.309 NA
ATOM      3  C   UNL     1      -3.144   0.957  -1.155  1.00  0.00     0.104 C 
ATOM      4  C   UNL     1      -3.809  -0.611   0.575  1.00  0.00     0.104 C 
ENDBRANCH   1   2
BRANCH   1   5
ATOM      5  C   UNL     1      -0.841  -0.777  -0.115  1.00  0.00     0.053 C 
BRANCH   5   6
ATOM      6  C   UNL     1       0.594  -0.858   0.310  1.00  0.00    -0.021 A 
ATOM      7  C   UNL     1       1.116  -1.655   1.324  1.00  0.00     0.087 A 
ATOM      8  C   UNL     1       1.650  -0.093  -0.145  1.00  0.00     0.003 A 
ATOM      9  N   UNL     1       2.438  -1.415   1.481  1.00  0.00    -0.361 N 
ATOM     10  C   UNL     1       2.751  -0.463   0.584  1.00  0.00     0.046 A 
ATOM     11  C   UNL     1       1.715   0.899  -1.124  1.00  0.00     0.010 A 
ATOM     12  H   UNL     1       3.078  -1.867   2.170  1.00  0.00     0.166 HD
ATOM     13  C   UNL     1       3.997   0.129   0.380  1.00  0.00     0.026 A 
ATOM     14  C   UNL     1       2.960   1.513  -1.353  1.00  0.00     0.001 A 
ATOM     15  C   UNL     1       4.096   1.129  -0.605  1.00  0.00     0.002 A 
ENDBRANCH   5   6
ENDBRANCH   1   5
TORSDOF 3
