REMARK SMILES O=c1[nH]c2ccccc2n1C1CCN(CCCC(c2ccc(F)cc2)c2ccc(F)cc2)CC1
REMARK SMILES IDX 16 1 17 2 18 3 19 4 23 5 22 6 21 7 24 8 20 9 25 10 26 11
REMARK SMILES IDX 27 12 32 13 28 14 31 15 29 16 30 17 15 18 14 19 13 20 33 21
REMARK SMILES IDX 12 22 34 23 11 24 10 25 2 26 9 27 1 28 3 29 4 30 8 31 5 33
REMARK SMILES IDX 7 34 6 35
REMARK H PARENT 3 32
REMARK Flexibility Score: inf
ROOT
ATOM      1  C   UNL     1      -1.405  -0.881  -0.517  1.00  0.00     0.016 C 
ENDROOT
BRANCH   1   2
ATOM      2  C   UNL     1      -2.902  -1.130  -0.266  1.00  0.00     0.014 C 
BRANCH   2   3
ATOM      3  C   UNL     1      -3.536  -0.194   0.797  1.00  0.00     0.049 C 
BRANCH   3   4
ATOM      4  C   UNL     1      -5.029  -0.435   0.948  1.00  0.00    -0.040 A 
ATOM      5  F   UNL     1      -9.129  -1.024   1.443  1.00  0.00    -0.207 F 
ATOM      6  C   UNL     1      -7.797  -0.831   1.282  1.00  0.00     0.123 A 
ATOM      7  C   UNL     1      -7.279  -0.548   0.016  1.00  0.00     0.039 A 
ATOM      8  C   UNL     1      -6.942  -0.906   2.384  1.00  0.00     0.039 A 
ATOM      9  C   UNL     1      -5.906  -0.346  -0.153  1.00  0.00     0.007 A 
ATOM     10  C   UNL     1      -5.567  -0.706   2.220  1.00  0.00     0.007 A 
ENDBRANCH   3   4
BRANCH   3  11
ATOM     11  C   UNL     1      -3.259   1.284   0.569  1.00  0.00    -0.040 A 
ATOM     12  C   UNL     1      -3.416   1.884  -0.697  1.00  0.00     0.007 A 
ATOM     13  C   UNL     1      -2.872   2.090   1.656  1.00  0.00     0.007 A 
ATOM     14  C   UNL     1      -3.162   3.247  -0.872  1.00  0.00     0.039 A 
ATOM     15  C   UNL     1      -2.623   3.454   1.477  1.00  0.00     0.039 A 
ATOM     16  C   UNL     1      -2.764   4.031   0.214  1.00  0.00     0.123 A 
ATOM     17  F   UNL     1      -2.517   5.353   0.041  1.00  0.00    -0.207 F 
ENDBRANCH   3  11
ENDBRANCH   2   3
ENDBRANCH   1   2
BRANCH   1  18
ATOM     18  C   UNL     1      -0.521  -1.146   0.711  1.00  0.00     0.084 C 
BRANCH  18  19
ATOM     19  N   UNL     1       0.897  -0.946   0.350  1.00  0.00    -0.303 NA
ATOM     20  C   UNL     1       1.785  -1.781   1.177  1.00  0.00     0.086 C 
ATOM     21  C   UNL     1       1.278   0.494   0.308  1.00  0.00     0.086 C 
ATOM     22  C   UNL     1       3.230  -1.625   0.702  1.00  0.00     0.041 C 
ATOM     23  C   UNL     1       2.575   0.825   1.076  1.00  0.00     0.041 C 
ATOM     24  C   UNL     1       3.732  -0.151   0.744  1.00  0.00     0.095 C 
BRANCH  24  25
ATOM     25  N   UNL     1       4.482   0.188  -0.494  1.00  0.00    -0.289 N 
ATOM     26  C   UNL     1       4.291   1.170  -1.429  1.00  0.00     0.326 A 
ATOM     27  C   UNL     1       5.569  -0.468  -0.971  1.00  0.00     0.069 A 
ATOM     28  O   UNL     1       3.391   2.046  -1.368  1.00  0.00    -0.248 OA
ATOM     29  N   UNL     1       5.171   1.126  -2.454  1.00  0.00    -0.306 N 
ATOM     30  C   UNL     1       5.960   0.087  -2.159  1.00  0.00     0.066 A 
ATOM     31  C   UNL     1       6.269  -1.542  -0.410  1.00  0.00     0.028 A 
ATOM     32  H   UNL     1       5.227   1.759  -3.283  1.00  0.00     0.171 HD
ATOM     33  C   UNL     1       7.039  -0.400  -2.891  1.00  0.00     0.028 A 
ATOM     34  C   UNL     1       7.363  -2.063  -1.127  1.00  0.00     0.002 A 
ATOM     35  C   UNL     1       7.748  -1.493  -2.359  1.00  0.00     0.002 A 
ENDBRANCH  24  25
ENDBRANCH  18  19
ENDBRANCH   1  18
TORSDOF 7
