REMARK SMILES CN[C@@H]1[C@H](O[C@H]2[C@H](O[C@H]3[C@H](O)[C@@H](O)[C@H](NC(=N)N)[C@@H](O)[C@@H]3NC(=N)N)O[C@@H](C)[C@]2(O)C=O)O[C@@H](CO)[C@H](O)[C@H]1O
REMARK SMILES IDX 6 1 7 2 26 3 27 4 28 5 29 6 5 7 4 8 3 9 39 10 37 11 33 12
REMARK SMILES IDX 34 13 2 14 1 15 40 17 38 19 35 21 36 22 8 24 9 25 10 26
REMARK SMILES IDX 21 27 12 28 19 29 14 30 11 31 22 33 23 34 25 36 24 37 13 41
REMARK SMILES IDX 20 43 15 45 16 46 18 48 17 49 30 53 31 55 32 56
REMARK H PARENT 2 16 40 18 38 20 36 23 11 32 22 35 25 38 25 39 24 40 13 42
REMARK H PARENT 20 44 15 47 18 50 18 51 17 52 30 54
REMARK Flexibility Score: inf
ROOT
ATOM      1  C   UNL     1      -0.698   1.622  -0.924  1.00  0.00     0.219 C 
ATOM      2  C   UNL     1      -0.410   0.508  -1.950  1.00  0.00     0.283 C 
ATOM      3  O   UNL     1      -0.975   0.880  -3.190  1.00  0.00    -0.343 OA
ATOM      4  C   UNL     1      -1.394   2.223  -3.118  1.00  0.00     0.160 C 
ATOM      5  C   UNL     1      -2.928   2.266  -3.245  1.00  0.00     0.042 C 
ATOM      6  C   UNL     1      -0.849   2.842  -1.817  1.00  0.00     0.177 C 
ENDROOT
BRANCH   1   7
ATOM      7  O   UNL     1      -1.927   1.384  -0.251  1.00  0.00    -0.339 OA
BRANCH   7   8
ATOM      8  C   UNL     1      -1.798   0.471   0.836  1.00  0.00     0.270 C 
ATOM      9  C   UNL     1      -2.793   0.841   1.962  1.00  0.00     0.142 C 
ATOM     10  C   UNL     1      -4.233   0.713   1.429  1.00  0.00     0.168 C 
ATOM     11  C   UNL     1      -4.456  -0.681   0.808  1.00  0.00     0.176 C 
ATOM     12  O   UNL     1      -2.037  -0.863   0.419  1.00  0.00    -0.342 OA
ATOM     13  C   UNL     1      -3.315  -1.002  -0.191  1.00  0.00     0.178 C 
BRANCH   9  14
ATOM     14  N   UNL     1      -2.561   2.217   2.455  1.00  0.00    -0.310 NA
ATOM     15  C   UNL     1      -2.613   2.285   3.922  1.00  0.00     0.102 C 
ATOM     16  H   UNL     1      -1.620   2.563   2.164  1.00  0.00     0.122 HD
ENDBRANCH   9  14
BRANCH  10  17
ATOM     17  O   UNL     1      -5.148   0.920   2.479  1.00  0.00    -0.388 OA
ATOM     18  H   UNL     1      -6.001   1.219   2.063  1.00  0.00     0.211 HD
ENDBRANCH  10  17
BRANCH  11  19
ATOM     19  O   UNL     1      -5.695  -0.672   0.139  1.00  0.00    -0.388 OA
ATOM     20  H   UNL     1      -6.039  -1.603   0.146  1.00  0.00     0.211 HD
ENDBRANCH  11  19
BRANCH  13  21
ATOM     21  C   UNL     1      -3.432  -2.425  -0.754  1.00  0.00     0.191 C 
BRANCH  21  22
ATOM     22  O   UNL     1      -3.379  -3.368   0.282  1.00  0.00    -0.394 OA
ATOM     23  H   UNL     1      -3.669  -4.230  -0.112  1.00  0.00     0.210 HD
ENDBRANCH  21  22
ENDBRANCH  13  21
ENDBRANCH   7   8
ENDBRANCH   1   7
BRANCH   2  24
ATOM     24  O   UNL     1       0.984   0.317  -2.145  1.00  0.00    -0.341 OA
BRANCH  24  25
ATOM     25  C   UNL     1       1.588  -0.471  -1.126  1.00  0.00     0.178 C 
ATOM     26  C   UNL     1       1.615  -1.968  -1.552  1.00  0.00     0.176 C 
ATOM     27  C   UNL     1       3.042   0.034  -0.951  1.00  0.00     0.144 C 
ATOM     28  C   UNL     1       2.396  -2.822  -0.520  1.00  0.00     0.170 C 
ATOM     29  C   UNL     1       3.850  -0.815   0.063  1.00  0.00     0.164 C 
ATOM     30  C   UNL     1       3.843  -2.300  -0.367  1.00  0.00     0.144 C 
BRANCH  26  31
ATOM     31  O   UNL     1       0.308  -2.463  -1.658  1.00  0.00    -0.388 OA
ATOM     32  H   UNL     1       0.340  -3.239  -2.271  1.00  0.00     0.211 HD
ENDBRANCH  26  31
BRANCH  27  33
ATOM     33  N   UNL     1       3.086   1.471  -0.634  1.00  0.00    -0.349 N 
ATOM     34  C   UNL     1       2.789   2.067   0.642  1.00  0.00     0.186 C 
ATOM     35  H   UNL     1       3.468   2.100  -1.373  1.00  0.00     0.164 HD
ATOM     36  N   UNL     1       3.148   3.435   0.877  1.00  0.00    -0.370 N 
ATOM     37  N   UNL     1       2.192   1.388   1.572  1.00  0.00    -0.270 NA
ATOM     38  H   UNL     1       3.498   4.031   0.098  1.00  0.00     0.159 HD
ATOM     39  H   UNL     1       3.022   3.873   1.817  1.00  0.00     0.159 HD
ATOM     40  H   UNL     1       1.971   1.816   2.498  1.00  0.00     0.191 HD
ENDBRANCH  27  33
BRANCH  28  41
ATOM     41  O   UNL     1       2.393  -4.176  -0.883  1.00  0.00    -0.388 OA
ATOM     42  H   UNL     1       2.839  -4.247  -1.767  1.00  0.00     0.211 HD
ENDBRANCH  28  41
BRANCH  29  43
ATOM     43  O   UNL     1       5.170  -0.337   0.167  1.00  0.00    -0.389 OA
ATOM     44  H   UNL     1       5.595  -0.438  -0.725  1.00  0.00     0.211 HD
ENDBRANCH  29  43
BRANCH  30  45
ATOM     45  N   UNL     1       4.636  -3.133   0.552  1.00  0.00    -0.349 N 
ATOM     46  C   UNL     1       4.369  -3.342   1.950  1.00  0.00     0.186 C 
ATOM     47  H   UNL     1       5.473  -3.610   0.146  1.00  0.00     0.164 HD
ATOM     48  N   UNL     1       5.256  -4.158   2.723  1.00  0.00    -0.370 N 
ATOM     49  N   UNL     1       3.319  -2.822   2.508  1.00  0.00    -0.270 NA
ATOM     50  H   UNL     1       5.114  -4.287   3.750  1.00  0.00     0.159 HD
ATOM     51  H   UNL     1       6.080  -4.617   2.269  1.00  0.00     0.159 HD
ATOM     52  H   UNL     1       3.108  -2.984   3.520  1.00  0.00     0.191 HD
ENDBRANCH  30  45
ENDBRANCH  24  25
ENDBRANCH   2  24
BRANCH   6  53
ATOM     53  O   UNL     1      -1.737   3.796  -1.271  1.00  0.00    -0.377 OA
ATOM     54  H   UNL     1      -1.405   4.034  -0.363  1.00  0.00     0.212 HD
ENDBRANCH   6  53
BRANCH   6  55
ATOM     55  C   UNL     1       0.500   3.493  -2.073  1.00  0.00     0.264 C 
ATOM     56  O   UNL     1       1.010   4.207  -1.223  1.00  0.00    -0.300 OA
ENDBRANCH   6  55
TORSDOF 16
