REMARK SMILES CCOC(=O)O[C@]1(C(=O)COC(=O)CC)CC[C@H]2[C@@H]3CCC4=CC(=O)C=C[C@]4(C)[C@H]3[C@@H](O)C[C@@]21C
REMARK SMILES IDX 18 1 17 2 16 3 7 4 34 5 35 6 33 7 31 8 30 9 19 10 20 11
REMARK SMILES IDX 21 12 22 13 23 14 24 15 25 16 26 17 27 18 28 19 29 20 6 21
REMARK SMILES IDX 4 22 5 23 3 24 2 25 1 26 8 27 9 28 10 29 11 30 12 31 13 32
REMARK SMILES IDX 14 33 15 34 32 35
REMARK H PARENT 32 36
REMARK Flexibility Score: inf
ROOT
ATOM      1  C   UNL     1      -0.501   0.839   0.221  1.00  0.00     0.003 C 
ATOM      2  C   UNL     1       0.343   2.045   0.615  1.00  0.00     0.009 C 
ATOM      3  C   UNL     1       1.745   1.743   0.062  1.00  0.00     0.058 C 
ATOM      4  C   UNL     1       1.667   0.380  -0.693  1.00  0.00     0.183 C 
ATOM      5  C   UNL     1       0.141   0.331  -1.084  1.00  0.00     0.021 C 
ATOM      6  C   UNL     1      -0.106   1.287  -2.311  1.00  0.00     0.016 C 
ATOM      7  C   UNL     1      -0.463  -1.066  -1.392  1.00  0.00     0.043 C 
ATOM      8  C   UNL     1      -2.016  -1.057  -1.471  1.00  0.00     0.119 C 
ATOM      9  C   UNL     1      -2.679  -0.364  -0.232  1.00  0.00     0.035 C 
ATOM     10  C   UNL     1      -2.036   1.017   0.119  1.00  0.00    -0.000 C 
ATOM     11  C   UNL     1      -2.653   1.652   1.403  1.00  0.00     0.009 C 
ATOM     12  C   UNL     1      -3.755   0.836   2.119  1.00  0.00     0.032 C 
ATOM     13  C   UNL     1      -4.665   0.038   1.207  1.00  0.00    -0.056 C 
ATOM     14  C   UNL     1      -5.806  -0.453   1.722  1.00  0.00     0.052 C 
ATOM     15  C   UNL     1      -6.592  -1.439   0.978  1.00  0.00     0.178 C 
ATOM     16  O   UNL     1      -7.719  -1.807   1.404  1.00  0.00    -0.290 OA
ATOM     17  C   UNL     1      -6.024  -2.034  -0.233  1.00  0.00     0.048 C 
ATOM     18  C   UNL     1      -4.891  -1.552  -0.751  1.00  0.00    -0.012 C 
ATOM     19  C   UNL     1      -4.249  -0.262  -0.238  1.00  0.00     0.013 C 
ATOM     20  C   UNL     1      -4.793   0.882  -1.127  1.00  0.00     0.021 C 
ENDROOT
BRANCH   4  21
ATOM     21  O   UNL     1       2.011  -0.625   0.286  1.00  0.00    -0.419 OA
BRANCH  21  22
ATOM     22  C   UNL     1       2.293  -1.983   0.075  1.00  0.00     0.509 C 
ATOM     23  O   UNL     1       2.319  -2.470  -1.087  1.00  0.00    -0.203 OA
BRANCH  22  24
ATOM     24  O   UNL     1       2.520  -2.801   1.184  1.00  0.00    -0.435 OA
BRANCH  24  25
ATOM     25  C   UNL     1       2.714  -4.211   1.092  1.00  0.00     0.233 C 
ATOM     26  C   UNL     1       4.118  -4.541   0.597  1.00  0.00     0.049 C 
ENDBRANCH  24  25
ENDBRANCH  22  24
ENDBRANCH  21  22
ENDBRANCH   4  21
BRANCH   4  27
ATOM     27  C   UNL     1       2.632   0.312  -1.891  1.00  0.00     0.214 C 
ATOM     28  O   UNL     1       2.381  -0.456  -2.807  1.00  0.00    -0.291 OA
BRANCH  27  29
ATOM     29  C   UNL     1       3.847   1.200  -2.023  1.00  0.00     0.312 C 
BRANCH  29  30
ATOM     30  O   UNL     1       4.605   1.191  -0.815  1.00  0.00    -0.457 OA
BRANCH  30  31
ATOM     31  C   UNL     1       5.632   2.110  -0.564  1.00  0.00     0.305 C 
ATOM     32  O   UNL     1       5.968   2.956  -1.438  1.00  0.00    -0.252 OA
BRANCH  31  33
ATOM     33  C   UNL     1       6.317   2.101   0.764  1.00  0.00     0.119 C 
ATOM     34  C   UNL     1       5.333   2.432   1.878  1.00  0.00     0.016 C 
ENDBRANCH  31  33
ENDBRANCH  30  31
ENDBRANCH  29  30
ENDBRANCH  27  29
ENDBRANCH   4  27
BRANCH   8  35
ATOM     35  O   UNL     1      -2.452  -0.480  -2.674  1.00  0.00    -0.393 OA
ATOM     36  H   UNL     1      -2.445  -1.194  -3.364  1.00  0.00     0.210 HD
ENDBRANCH   8  35
TORSDOF 10
