REMARK SMILES CN[C@@H](C)Cc1ccccc1
REMARK SMILES IDX 3 1 4 2 2 3 1 4 5 6 6 7 7 8 11 9 8 10 10 11 9 12
REMARK H PARENT 2 5
REMARK Flexibility Score: inf
ROOT
ATOM      1  C   UNL     1       1.282   0.127  -0.279  1.00  0.00     0.054 C 
ATOM      2  C   UNL     1       1.245   1.295   0.727  1.00  0.00     0.024 C 
ENDROOT
BRANCH   1   3
ATOM      3  N   UNL     1       2.470   0.205  -1.150  1.00  0.00    -0.317 NA
ATOM      4  C   UNL     1       3.662  -0.366  -0.517  1.00  0.00     0.101 C 
ATOM      5  H   UNL     1       2.669   1.201  -1.404  1.00  0.00     0.122 HD
ENDBRANCH   1   3
BRANCH   1   6
ATOM      6  C   UNL     1       0.025   0.123  -1.170  1.00  0.00     0.054 C 
BRANCH   6   7
ATOM      7  C   UNL     1      -1.232  -0.172  -0.390  1.00  0.00    -0.046 A 
ATOM      8  C   UNL     1      -2.100   0.869  -0.017  1.00  0.00     0.004 A 
ATOM      9  C   UNL     1      -1.532  -1.489  -0.004  1.00  0.00     0.004 A 
ATOM     10  C   UNL     1      -3.254   0.592   0.724  1.00  0.00     0.000 A 
ATOM     11  C   UNL     1      -2.687  -1.761   0.736  1.00  0.00     0.000 A 
ATOM     12  C   UNL     1      -3.547  -0.721   1.099  1.00  0.00     0.000 A 
ENDBRANCH   6   7
ENDBRANCH   1   6
TORSDOF 3
