REMARK SMILES CCC(OC(C)=O)C(CC(C)N(C)C)(c1ccccc1)c1ccccc1
REMARK SMILES IDX 8 1 3 2 2 3 1 4 4 5 5 6 6 7 7 8 9 9 10 10 11 11 12 12 13 13
REMARK SMILES IDX 14 14 15 15 16 16 20 17 17 18 19 19 18 20 21 21 22 22 26 23
REMARK SMILES IDX 23 24 25 25 24 26
REMARK H PARENT
REMARK Flexibility Score: inf
ROOT
ATOM      1  C   UNL     1      -0.263  -0.688   0.202  1.00  0.00     0.059 C 
ENDROOT
BRANCH   1   2
ATOM      2  C   UNL     1      -0.642   0.844   0.338  1.00  0.00     0.191 C 
BRANCH   2   3
ATOM      3  C   UNL     1      -1.910   1.075   1.225  1.00  0.00     0.043 C 
ATOM      4  C   UNL     1      -2.612   2.413   1.004  1.00  0.00     0.008 C 
ENDBRANCH   2   3
BRANCH   2   5
ATOM      5  O   UNL     1      -0.773   1.420  -0.970  1.00  0.00    -0.461 OA
BRANCH   5   6
ATOM      6  C   UNL     1      -0.493   2.753  -1.296  1.00  0.00     0.302 C 
ATOM      7  C   UNL     1      -0.744   3.231  -2.685  1.00  0.00     0.139 C 
ATOM      8  O   UNL     1       0.005   3.540  -0.447  1.00  0.00    -0.253 OA
ENDBRANCH   5   6
ENDBRANCH   2   5
ENDBRANCH   1   2
BRANCH   1   9
ATOM      9  C   UNL     1       1.197  -0.846  -0.406  1.00  0.00     0.039 C 
BRANCH   9  10
ATOM     10  C   UNL     1       2.384   0.052   0.059  1.00  0.00     0.054 C 
ATOM     11  C   UNL     1       3.730  -0.625  -0.290  1.00  0.00     0.024 C 
BRANCH  10  12
ATOM     12  N   UNL     1       2.276   1.435  -0.484  1.00  0.00    -0.307 NA
ATOM     13  C   UNL     1       2.742   1.597  -1.875  1.00  0.00     0.105 C 
ATOM     14  C   UNL     1       2.938   2.419   0.390  1.00  0.00     0.105 C 
ENDBRANCH  10  12
ENDBRANCH   9  10
ENDBRANCH   1   9
BRANCH   1  15
ATOM     15  C   UNL     1      -1.212  -1.439  -0.809  1.00  0.00    -0.034 A 
ATOM     16  C   UNL     1      -2.408  -0.883  -1.340  1.00  0.00     0.005 A 
ATOM     17  C   UNL     1      -0.877  -2.751  -1.244  1.00  0.00     0.005 A 
ATOM     18  C   UNL     1      -3.201  -1.591  -2.247  1.00  0.00     0.000 A 
ATOM     19  C   UNL     1      -1.677  -3.450  -2.151  1.00  0.00     0.000 A 
ATOM     20  C   UNL     1      -2.836  -2.870  -2.654  1.00  0.00     0.000 A 
ENDBRANCH   1  15
BRANCH   1  21
ATOM     21  C   UNL     1      -0.314  -1.359   1.613  1.00  0.00    -0.034 A 
ATOM     22  C   UNL     1      -1.079  -2.525   1.881  1.00  0.00     0.005 A 
ATOM     23  C   UNL     1       0.370  -0.781   2.712  1.00  0.00     0.005 A 
ATOM     24  C   UNL     1      -1.087  -3.115   3.148  1.00  0.00     0.000 A 
ATOM     25  C   UNL     1       0.356  -1.377   3.976  1.00  0.00     0.000 A 
ATOM     26  C   UNL     1      -0.360  -2.550   4.191  1.00  0.00     0.000 A 
ENDBRANCH   1  21
TORSDOF 9
