REMARK SMILES Clc1ccc(COC(Cn2ccnc2)c2ccc(Cl)cc2Cl)c(Cl)c1
REMARK SMILES IDX 8 1 7 2 6 3 5 4 1 5 2 6 25 7 3 8 23 9 4 10 24 11 9 12 10 13
REMARK SMILES IDX 11 14 14 15 12 16 13 17 15 18 21 19 16 20 22 21 20 22 17 23
REMARK SMILES IDX 18 24 19 25
REMARK H PARENT
REMARK Flexibility Score: inf
ROOT
ATOM      1  C   UNL     1      -1.274   0.247  -0.320  1.00  0.00     0.170 C 
ENDROOT
BRANCH   1   2
ATOM      2  O   UNL     1      -0.024  -0.306   0.057  1.00  0.00    -0.367 OA
BRANCH   2   3
ATOM      3  C   UNL     1       0.887  -0.267  -1.022  1.00  0.00     0.198 C 
BRANCH   3   4
ATOM      4  C   UNL     1       2.253  -0.636  -0.512  1.00  0.00    -0.004 A 
ATOM      5  Cl  UNL     1       6.316  -1.882   1.157  1.00  0.00    -0.084 Cl
ATOM      6  C   UNL     1       4.753  -1.403   0.519  1.00  0.00     0.042 A 
ATOM      7  C   UNL     1       4.358  -0.063   0.570  1.00  0.00     0.041 A 
ATOM      8  C   UNL     1       3.900  -2.361  -0.032  1.00  0.00     0.021 A 
ATOM      9  C   UNL     1       3.111   0.327   0.066  1.00  0.00     0.048 A 
ATOM     10  C   UNL     1       2.654  -1.982  -0.538  1.00  0.00     0.009 A 
ATOM     11  Cl  UNL     1       2.660   2.025   0.182  1.00  0.00    -0.084 Cl
ENDBRANCH   3   4
ENDBRANCH   2   3
ENDBRANCH   1   2
BRANCH   1  12
ATOM     12  C   UNL     1      -2.397  -0.449   0.462  1.00  0.00     0.160 C 
BRANCH  12  13
ATOM     13  N   UNL     1      -2.408  -1.880   0.165  1.00  0.00    -0.335 N 
ATOM     14  C   UNL     1      -1.726  -2.842   0.806  1.00  0.00     0.107 A 
ATOM     15  C   UNL     1      -3.013  -2.486  -0.874  1.00  0.00     0.199 A 
ATOM     16  C   UNL     1      -1.950  -4.029   0.144  1.00  0.00     0.130 A 
ATOM     17  N   UNL     1      -2.757  -3.811  -0.915  1.00  0.00    -0.245 NA
ENDBRANCH  12  13
ENDBRANCH   1  12
BRANCH   1  18
ATOM     18  C   UNL     1      -1.295   1.745  -0.057  1.00  0.00     0.001 A 
ATOM     19  C   UNL     1      -0.837   2.314   1.159  1.00  0.00     0.048 A 
ATOM     20  C   UNL     1      -1.810   2.597  -1.052  1.00  0.00     0.009 A 
ATOM     21  Cl  UNL     1      -0.191   1.344   2.480  1.00  0.00    -0.084 Cl
ATOM     22  C   UNL     1      -0.884   3.702   1.341  1.00  0.00     0.041 A 
ATOM     23  C   UNL     1      -1.852   3.979  -0.856  1.00  0.00     0.021 A 
ATOM     24  C   UNL     1      -1.388   4.532   0.337  1.00  0.00     0.042 A 
ATOM     25  Cl  UNL     1      -1.440   6.269   0.579  1.00  0.00    -0.084 Cl
ENDBRANCH   1  18
TORSDOF 6
