REMARK SMILES O=C(NCC1CCCCN1)c1cc(OCC(F)(F)F)ccc1OCC(F)(F)F
REMARK SMILES IDX 13 1 12 2 11 3 22 4 21 5 20 6 14 7 15 8 16 9 17 10 18 11
REMARK SMILES IDX 19 12 2 13 1 14 3 15 4 17 5 18 6 19 10 20 7 21 9 22 8 24
REMARK SMILES IDX 23 25 24 26 25 27 26 28 27 29 28 30
REMARK H PARENT 3 16 10 23
REMARK Flexibility Score: inf
ROOT
ATOM      1  C   UNL     1      -3.086  -0.961  -0.941  1.00  0.00     0.120 A 
ATOM      2  C   UNL     1      -1.866  -1.042  -0.264  1.00  0.00     0.064 A 
ATOM      3  C   UNL     1      -1.258   0.106   0.272  1.00  0.00     0.085 A 
ATOM      4  C   UNL     1      -1.905   1.356   0.161  1.00  0.00     0.132 A 
ATOM      5  C   UNL     1      -3.128   1.434  -0.534  1.00  0.00     0.051 A 
ATOM      6  C   UNL     1      -3.711   0.289  -1.079  1.00  0.00     0.050 A 
ENDROOT
BRANCH   1   7
ATOM      7  O   UNL     1      -3.637  -2.140  -1.463  1.00  0.00    -0.484 OA
BRANCH   7   8
ATOM      8  C   UNL     1      -4.870  -2.208  -2.176  1.00  0.00     0.344 C 
BRANCH   8   9
ATOM      9  C   UNL     1      -5.148  -3.648  -2.586  1.00  0.00     0.422 C 
ATOM     10  F   UNL     1      -5.232  -4.449  -1.461  1.00  0.00    -0.167 F 
ATOM     11  F   UNL     1      -4.129  -4.110  -3.400  1.00  0.00    -0.167 F 
ATOM     12  F   UNL     1      -6.344  -3.711  -3.277  1.00  0.00    -0.167 F 
ENDBRANCH   8   9
ENDBRANCH   7   8
ENDBRANCH   1   7
BRANCH   3  13
ATOM     13  C   UNL     1       0.040  -0.032   0.968  1.00  0.00     0.255 C 
ATOM     14  O   UNL     1       0.232  -1.025   1.722  1.00  0.00    -0.269 OA
ATOM     15  N   UNL     1       1.089   0.928   0.767  1.00  0.00    -0.350 N 
ATOM     16  H   UNL     1       0.959   1.695   0.070  1.00  0.00     0.163 HD
BRANCH  15  17
ATOM     17  C   UNL     1       2.359   0.871   1.491  1.00  0.00     0.135 C 
BRANCH  17  18
ATOM     18  C   UNL     1       3.279  -0.224   0.926  1.00  0.00     0.072 C 
ATOM     19  C   UNL     1       3.653   0.070  -0.543  1.00  0.00     0.021 C 
ATOM     20  N   UNL     1       4.480  -0.325   1.787  1.00  0.00    -0.312 NA
ATOM     21  C   UNL     1       4.529  -1.051  -1.126  1.00  0.00     0.003 C 
ATOM     22  C   UNL     1       5.698  -0.807   1.105  1.00  0.00     0.081 C 
ATOM     23  H   UNL     1       4.261  -0.980   2.575  1.00  0.00     0.123 HD
ATOM     24  C   UNL     1       5.382  -1.754  -0.057  1.00  0.00     0.015 C 
ENDBRANCH  17  18
ENDBRANCH  15  17
ENDBRANCH   3  13
BRANCH   4  25
ATOM     25  O   UNL     1      -1.314   2.483   0.763  1.00  0.00    -0.483 OA
BRANCH  25  26
ATOM     26  C   UNL     1      -1.898   3.781   0.890  1.00  0.00     0.344 C 
BRANCH  26  27
ATOM     27  C   UNL     1      -2.864   3.835   2.073  1.00  0.00     0.422 C 
ATOM     28  F   UNL     1      -3.334   5.127   2.223  1.00  0.00    -0.167 F 
ATOM     29  F   UNL     1      -3.938   2.990   1.866  1.00  0.00    -0.167 F 
ATOM     30  F   UNL     1      -2.207   3.458   3.230  1.00  0.00    -0.167 F 
ENDBRANCH  26  27
ENDBRANCH  25  26
ENDBRANCH   4  25
TORSDOF 9
