REMARK SMILES CC(O)(P(=O)(O)O)P(=O)(O)O
REMARK SMILES IDX 1 1 2 2 3 3 4 5 5 6 6 7 7 9 8 11 9 12 10 13 11 15
REMARK H PARENT 3 4 6 8 7 10 10 14 11 16
REMARK Flexibility Score: inf
ROOT
ATOM      1  C   UNL     1      -0.966   0.928  -0.973  1.00  0.00     0.070 C 
ATOM      2  C   UNL     1      -0.171  -0.266  -0.426  1.00  0.00     0.264 C 
ENDROOT
BRANCH   2   3
ATOM      3  O   UNL     1      -0.099  -1.280  -1.395  1.00  0.00    -0.368 OA
ATOM      4  H   UNL     1       0.373  -0.911  -2.187  1.00  0.00     0.213 HD
ENDBRANCH   2   3
BRANCH   2   5
ATOM      5  P   UNL     1       1.520   0.269   0.036  1.00  0.00     0.369 P 
ATOM      6  O   UNL     1       1.452   1.327   1.116  1.00  0.00    -0.256 OA
BRANCH   5   7
ATOM      7  O   UNL     1       2.399  -1.061   0.605  1.00  0.00    -0.322 OA
ATOM      8  H   UNL     1       3.292  -0.697   0.834  1.00  0.00     0.221 HD
ENDBRANCH   5   7
BRANCH   5   9
ATOM      9  O   UNL     1       2.297   0.911  -1.324  1.00  0.00    -0.322 OA
ATOM     10  H   UNL     1       3.199   1.166  -1.006  1.00  0.00     0.221 HD
ENDBRANCH   5   9
ENDBRANCH   2   5
BRANCH   2  11
ATOM     11  P   UNL     1      -1.013  -0.949   1.048  1.00  0.00     0.369 P 
ATOM     12  O   UNL     1      -0.244  -2.150   1.551  1.00  0.00    -0.256 OA
BRANCH  11  13
ATOM     13  O   UNL     1      -1.086   0.209   2.283  1.00  0.00    -0.322 OA
ATOM     14  H   UNL     1      -1.766   0.864   1.985  1.00  0.00     0.221 HD
ENDBRANCH  11  13
BRANCH  11  15
ATOM     15  O   UNL     1      -2.579  -1.444   0.636  1.00  0.00    -0.322 OA
ATOM     16  H   UNL     1      -3.107  -0.609   0.569  1.00  0.00     0.221 HD
ENDBRANCH  11  15
ENDBRANCH   2  11
TORSDOF 7
