REMARK SMILES CC(C)(C(=O)c1cccnc1)c1cccnc1
REMARK SMILES IDX 1 1 2 2 3 3 4 4 5 5 6 6 11 7 7 8 10 9 8 10 9 11 12 12 13 13
REMARK SMILES IDX 17 14 14 15 16 16 15 17
REMARK H PARENT
REMARK Flexibility Score: inf
ROOT
ATOM      1  C   UNL     1      -0.617  -2.209   1.011  1.00  0.00     0.025 C 
ATOM      2  C   UNL     1      -0.614  -1.362  -0.284  1.00  0.00     0.054 C 
ATOM      3  C   UNL     1      -1.477  -2.110  -1.329  1.00  0.00     0.025 C 
ENDROOT
BRANCH   2   4
ATOM      4  C   UNL     1       0.837  -1.271  -0.776  1.00  0.00     0.174 C 
ATOM      5  O   UNL     1       1.270  -2.180  -1.539  1.00  0.00    -0.293 OA
BRANCH   4   6
ATOM      6  C   UNL     1       1.791  -0.195  -0.374  1.00  0.00     0.037 A 
ATOM      7  C   UNL     1       2.870   0.124  -1.220  1.00  0.00     0.122 A 
ATOM      8  C   UNL     1       1.670   0.516   0.835  1.00  0.00     0.015 A 
ATOM      9  N   UNL     1       3.752   1.100  -0.877  1.00  0.00    -0.264 NA
ATOM     10  C   UNL     1       2.590   1.513   1.161  1.00  0.00     0.021 A 
ATOM     11  C   UNL     1       3.635   1.795   0.283  1.00  0.00     0.111 A 
ENDBRANCH   4   6
ENDBRANCH   2   4
BRANCH   2  12
ATOM     12  C   UNL     1      -1.233   0.037  -0.111  1.00  0.00    -0.016 A 
ATOM     13  C   UNL     1      -1.968   0.415   1.034  1.00  0.00     0.008 A 
ATOM     14  C   UNL     1      -1.126   0.982  -1.155  1.00  0.00     0.115 A 
ATOM     15  C   UNL     1      -2.526   1.690   1.128  1.00  0.00     0.020 A 
ATOM     16  N   UNL     1      -1.683   2.216  -1.036  1.00  0.00    -0.264 NA
ATOM     17  C   UNL     1      -2.369   2.587   0.075  1.00  0.00     0.111 A 
ENDBRANCH   2  12
TORSDOF 3
