REMARK SMILES CC(C)(C)NC[C@H](O)COc1ccccc1C1CCCC1
REMARK SMILES IDX 9 1 7 2 6 3 5 4 2 6 1 7 3 8 4 9 8 10 10 12 11 13 12 14 16 15
REMARK SMILES IDX 13 16 15 17 14 18 17 19 18 20 21 21 19 22 20 23
REMARK H PARENT 5 5 8 11
REMARK Flexibility Score: inf
ROOT
ATOM      1  C   UNL     1       0.105  -0.908   2.959  1.00  0.00     0.262 C 
ENDROOT
BRANCH   1   2
ATOM      2  C   UNL     1       1.427  -1.108   2.195  1.00  0.00     0.165 C 
BRANCH   2   3
ATOM      3  C   UNL     1       1.724   0.072   1.243  1.00  0.00     0.116 C 
BRANCH   3   4
ATOM      4  N   UNL     1       3.058  -0.085   0.639  1.00  0.00    -0.309 NA
ATOM      5  H   UNL     1       3.019  -0.916  -0.000  1.00  0.00     0.123 HD
BRANCH   4   6
ATOM      6  C   UNL     1       3.545   1.087  -0.133  1.00  0.00     0.010 C 
ATOM      7  C   UNL     1       4.886   0.697  -0.789  1.00  0.00     0.027 C 
ATOM      8  C   UNL     1       2.555   1.494  -1.249  1.00  0.00     0.027 C 
ATOM      9  C   UNL     1       3.807   2.288   0.803  1.00  0.00     0.027 C 
ENDBRANCH   4   6
ENDBRANCH   3   4
ENDBRANCH   2   3
BRANCH   2  10
ATOM     10  O   UNL     1       1.434  -2.344   1.524  1.00  0.00    -0.388 OA
ATOM     11  H   UNL     1       0.926  -2.241   0.677  1.00  0.00     0.211 HD
ENDBRANCH   2  10
ENDBRANCH   1   2
BRANCH   1  12
ATOM     12  O   UNL     1      -0.976  -0.592   2.078  1.00  0.00    -0.491 OA
BRANCH  12  13
ATOM     13  C   UNL     1      -1.659  -1.494   1.245  1.00  0.00     0.122 A 
ATOM     14  C   UNL     1      -1.701  -2.875   1.527  1.00  0.00     0.047 A 
ATOM     15  C   UNL     1      -2.329  -0.999   0.101  1.00  0.00    -0.003 A 
ATOM     16  C   UNL     1      -2.387  -3.750   0.684  1.00  0.00     0.004 A 
ATOM     17  C   UNL     1      -3.010  -1.901  -0.740  1.00  0.00     0.008 A 
ATOM     18  C   UNL     1      -3.039  -3.265  -0.448  1.00  0.00     0.001 A 
BRANCH  15  19
ATOM     19  C   UNL     1      -2.286   0.484  -0.254  1.00  0.00     0.023 C 
ATOM     20  C   UNL     1      -1.654   0.738  -1.632  1.00  0.00     0.008 C 
ATOM     21  C   UNL     1      -3.684   1.118  -0.285  1.00  0.00     0.008 C 
ATOM     22  C   UNL     1      -2.737   1.370  -2.493  1.00  0.00     0.001 C 
ATOM     23  C   UNL     1      -3.714   2.003  -1.520  1.00  0.00     0.001 C 
ENDBRANCH  15  19
ENDBRANCH  12  13
ENDBRANCH   1  12
TORSDOF 8
