REMARK SMILES CC(=O)Oc1c(C)cc(OCC(O)CNC(C)C)c(C)c1C
REMARK SMILES IDX 11 1 12 2 14 3 15 4 16 6 17 7 18 8 13 9 10 11 9 12 19 13
REMARK SMILES IDX 8 14 20 15 21 16 6 17 22 18 5 19 7 20 4 21 2 22 1 23 3 24
REMARK H PARENT 15 5 13 10
REMARK Flexibility Score: inf
ROOT
ATOM      1  C   UNL     1       0.855  -1.697   1.141  1.00  0.00     0.262 C 
ENDROOT
BRANCH   1   2
ATOM      2  C   UNL     1       2.095  -2.361   0.529  1.00  0.00     0.165 C 
BRANCH   2   3
ATOM      3  C   UNL     1       3.120  -1.309   0.081  1.00  0.00     0.116 C 
BRANCH   3   4
ATOM      4  N   UNL     1       4.287  -1.971  -0.520  1.00  0.00    -0.312 NA
ATOM      5  H   UNL     1       4.001  -2.401  -1.432  1.00  0.00     0.123 HD
BRANCH   4   6
ATOM      6  C   UNL     1       5.409  -1.040  -0.742  1.00  0.00     0.047 C 
ATOM      7  C   UNL     1       5.170  -0.130  -1.959  1.00  0.00     0.024 C 
ATOM      8  C   UNL     1       6.693  -1.849  -0.933  1.00  0.00     0.024 C 
ENDBRANCH   4   6
ENDBRANCH   3   4
ENDBRANCH   2   3
BRANCH   2   9
ATOM      9  O   UNL     1       2.690  -3.210   1.477  1.00  0.00    -0.388 OA
ATOM     10  H   UNL     1       2.138  -4.034   1.512  1.00  0.00     0.211 HD
ENDBRANCH   2   9
ENDBRANCH   1   2
BRANCH   1  11
ATOM     11  O   UNL     1       0.200  -0.896   0.159  1.00  0.00    -0.491 OA
BRANCH  11  12
ATOM     12  C   UNL     1      -0.959  -0.134   0.382  1.00  0.00     0.123 A 
ATOM     13  C   UNL     1      -1.478   0.646  -0.674  1.00  0.00    -0.002 A 
ATOM     14  C   UNL     1      -1.604  -0.130   1.630  1.00  0.00     0.054 A 
ATOM     15  C   UNL     1      -0.775   0.643  -2.013  1.00  0.00     0.049 C 
ATOM     16  C   UNL     1      -2.613   1.468  -0.451  1.00  0.00    -0.001 A 
ATOM     17  C   UNL     1      -2.756   0.634   1.840  1.00  0.00    -0.004 A 
ATOM     18  C   UNL     1      -3.117   2.396  -1.533  1.00  0.00     0.049 C 
ATOM     19  C   UNL     1      -3.282   1.408   0.794  1.00  0.00     0.137 A 
ATOM     20  C   UNL     1      -3.457   0.587   3.170  1.00  0.00     0.048 C 
BRANCH  19  21
ATOM     21  O   UNL     1      -4.464   2.128   1.018  1.00  0.00    -0.426 OA
BRANCH  21  22
ATOM     22  C   UNL     1      -5.659   1.863   0.340  1.00  0.00     0.308 C 
ATOM     23  C   UNL     1      -6.831   2.761   0.540  1.00  0.00     0.139 C 
ATOM     24  O   UNL     1      -5.749   0.887  -0.453  1.00  0.00    -0.252 OA
ENDBRANCH  21  22
ENDBRANCH  19  21
ENDBRANCH  11  12
ENDBRANCH   1  11
TORSDOF 9
