REMARK SMILES CC1(C)S[C@@H]2[C@H](NC(=O)Cc3ccccc3)C(=O)N2[C@H]1C(=O)O
REMARK SMILES IDX 5 1 4 2 2 3 1 4 3 5 20 6 19 7 17 8 18 9 6 10 7 11 8 12 9 14
REMARK SMILES IDX 10 15 11 16 12 17 16 18 13 19 15 20 14 21 21 22 22 23 23 24
REMARK H PARENT 7 13 23 25
REMARK Flexibility Score: inf
ROOT
ATOM      1  C   UNL     1      -1.152  -0.517  -1.100  1.00  0.00     0.176 C 
ATOM      2  S   UNL     1      -1.253  -1.610   0.362  1.00  0.00    -0.125 SA
ATOM      3  C   UNL     1      -3.075  -1.308   0.520  1.00  0.00     0.044 C 
ATOM      4  C   UNL     1      -3.467  -1.397   2.002  1.00  0.00     0.026 C 
ATOM      5  C   UNL     1      -3.796  -2.420  -0.270  1.00  0.00     0.026 C 
ATOM      6  C   UNL     1      -3.353   0.123  -0.041  1.00  0.00     0.211 C 
ATOM      7  N   UNL     1      -2.244   0.390  -0.922  1.00  0.00    -0.311 N 
ATOM      8  C   UNL     1      -1.298   1.520  -1.067  1.00  0.00     0.250 C 
ATOM      9  O   UNL     1      -1.400   2.774  -1.040  1.00  0.00    -0.272 OA
ATOM     10  C   UNL     1      -0.166   0.546  -1.181  1.00  0.00     0.205 C 
ENDROOT
BRANCH  10  11
ATOM     11  N   UNL     1       0.765   0.665  -0.052  1.00  0.00    -0.341 N 
ATOM     12  C   UNL     1       1.685   1.762   0.041  1.00  0.00     0.225 C 
ATOM     13  H   UNL     1       0.849  -0.089   0.663  1.00  0.00     0.164 HD
ATOM     14  O   UNL     1       1.688   2.668  -0.836  1.00  0.00    -0.275 OA
BRANCH  12  15
ATOM     15  C   UNL     1       2.689   1.809   1.152  1.00  0.00     0.135 C 
BRANCH  15  16
ATOM     16  C   UNL     1       3.899   0.995   0.787  1.00  0.00    -0.039 A 
ATOM     17  C   UNL     1       4.948   1.576   0.055  1.00  0.00     0.004 A 
ATOM     18  C   UNL     1       3.965  -0.369   1.121  1.00  0.00     0.004 A 
ATOM     19  C   UNL     1       6.057   0.810  -0.316  1.00  0.00     0.000 A 
ATOM     20  C   UNL     1       5.075  -1.132   0.746  1.00  0.00     0.000 A 
ATOM     21  C   UNL     1       6.121  -0.543   0.030  1.00  0.00     0.000 A 
ENDBRANCH  15  16
ENDBRANCH  12  15
ENDBRANCH  10  11
BRANCH   6  22
ATOM     22  C   UNL     1      -4.666   0.294  -0.755  1.00  0.00     0.327 C 
ATOM     23  O   UNL     1      -4.747   0.121  -2.002  1.00  0.00    -0.250 OA
BRANCH  22  24
ATOM     24  O   UNL     1      -5.809   0.601  -0.024  1.00  0.00    -0.480 OA
ATOM     25  H   UNL     1      -6.707   0.703  -0.481  1.00  0.00     0.296 HD
ENDBRANCH  22  24
ENDBRANCH   6  22
TORSDOF 5
