REMARK SMILES CC(C)(Oc1ccc(CCNC(=O)c2ccc(Cl)cc2)cc1)C(=O)O
REMARK SMILES IDX 5 1 6 2 7 3 8 4 21 5 22 6 4 7 2 8 1 9 3 10 23 11 24 12 25 13
REMARK SMILES IDX 9 15 10 16 11 17 12 18 13 20 14 21 15 22 20 23 16 24 19 25
REMARK SMILES IDX 17 26 18 27
REMARK H PARENT 25 14 11 19
REMARK Flexibility Score: inf
ROOT
ATOM      1  C   UNL     1      -3.162   0.606  -0.200  1.00  0.00     0.121 A 
ATOM      2  C   UNL     1      -2.566   0.260  -1.419  1.00  0.00     0.047 A 
ATOM      3  C   UNL     1      -1.207  -0.065  -1.470  1.00  0.00     0.007 A 
ATOM      4  C   UNL     1      -0.431  -0.045  -0.299  1.00  0.00    -0.046 A 
ATOM      5  C   UNL     1      -1.026   0.331   0.916  1.00  0.00     0.007 A 
ATOM      6  C   UNL     1      -2.385   0.654   0.963  1.00  0.00     0.047 A 
ENDROOT
BRANCH   1   7
ATOM      7  O   UNL     1      -4.520   0.941  -0.153  1.00  0.00    -0.476 OA
BRANCH   7   8
ATOM      8  C   UNL     1      -5.577  -0.004   0.084  1.00  0.00     0.199 C 
ATOM      9  C   UNL     1      -5.400  -0.663   1.463  1.00  0.00     0.069 C 
ATOM     10  C   UNL     1      -5.588  -1.076  -1.020  1.00  0.00     0.069 C 
BRANCH   8  11
ATOM     11  C   UNL     1      -6.894   0.733   0.061  1.00  0.00     0.347 C 
ATOM     12  O   UNL     1      -6.928   1.977  -0.142  1.00  0.00    -0.248 OA
BRANCH  11  13
ATOM     13  O   UNL     1      -8.085   0.040   0.266  1.00  0.00    -0.478 OA
ATOM     14  H   UNL     1      -8.976   0.521   0.254  1.00  0.00     0.296 HD
ENDBRANCH  11  13
ENDBRANCH   8  11
ENDBRANCH   7   8
ENDBRANCH   1   7
BRANCH   4  15
ATOM     15  C   UNL     1       1.040  -0.360  -0.358  1.00  0.00     0.057 C 
BRANCH  15  16
ATOM     16  C   UNL     1       1.853   0.911  -0.612  1.00  0.00     0.121 C 
BRANCH  16  17
ATOM     17  N   UNL     1       3.279   0.599  -0.687  1.00  0.00    -0.352 N 
ATOM     18  C   UNL     1       4.078   0.363   0.485  1.00  0.00     0.251 C 
ATOM     19  H   UNL     1       3.709   0.531  -1.636  1.00  0.00     0.163 HD
ATOM     20  O   UNL     1       3.524   0.327   1.619  1.00  0.00    -0.269 OA
BRANCH  18  21
ATOM     21  C   UNL     1       5.541   0.145   0.387  1.00  0.00     0.039 A 
ATOM     22  C   UNL     1       6.289   0.678  -0.680  1.00  0.00     0.015 A 
ATOM     23  C   UNL     1       6.210  -0.586   1.387  1.00  0.00     0.015 A 
ATOM     24  C   UNL     1       7.670   0.467  -0.752  1.00  0.00     0.021 A 
ATOM     25  C   UNL     1       7.590  -0.795   1.310  1.00  0.00     0.021 A 
ATOM     26  C   UNL     1       8.320  -0.272   0.240  1.00  0.00     0.041 A 
ATOM     27  Cl  UNL     1      10.052  -0.534   0.147  1.00  0.00    -0.084 Cl
ENDBRANCH  18  21
ENDBRANCH  16  17
ENDBRANCH  15  16
ENDBRANCH   4  15
TORSDOF 8
