REMARK SMILES N=C(N)NC(=O)Cc1c(Cl)cccc1Cl
REMARK SMILES IDX 7 1 5 2 3 3 2 4 1 7 4 8 6 11 8 12 9 13 14 14 10 15 11 16
REMARK SMILES IDX 13 17 15 18 12 19
REMARK H PARENT 3 5 3 6 1 9 4 10
REMARK Flexibility Score: inf
ROOT
ATOM      1  C   UNL     1      -0.191   1.468   0.035  1.00  0.00     0.139 C 
ENDROOT
BRANCH   1   2
ATOM      2  C   UNL     1       1.091   0.752  -0.280  1.00  0.00     0.231 C 
ATOM      3  N   UNL     1       3.880  -1.016   1.512  1.00  0.00    -0.370 N 
ATOM      4  C   UNL     1       3.325  -0.119   0.551  1.00  0.00     0.192 C 
ATOM      5  H   UNL     1       4.842  -1.402   1.387  1.00  0.00     0.159 HD
ATOM      6  H   UNL     1       3.325  -1.304   2.348  1.00  0.00     0.159 HD
ATOM      7  N   UNL     1       4.044   0.242  -0.466  1.00  0.00    -0.269 NA
ATOM      8  N   UNL     1       2.016   0.430   0.771  1.00  0.00    -0.297 N 
ATOM      9  H   UNL     1       3.719   0.938  -1.172  1.00  0.00     0.191 HD
ATOM     10  H   UNL     1       1.687   0.506   1.759  1.00  0.00     0.173 HD
ATOM     11  O   UNL     1       1.325   0.402  -1.468  1.00  0.00    -0.274 OA
ENDBRANCH   1   2
BRANCH   1  12
ATOM     12  C   UNL     1      -1.377   0.542  -0.140  1.00  0.00    -0.001 A 
ATOM     13  C   UNL     1      -2.035   0.439  -1.391  1.00  0.00     0.046 A 
ATOM     14  C   UNL     1      -1.819  -0.274   0.931  1.00  0.00     0.046 A 
ATOM     15  Cl  UNL     1      -1.539   1.384  -2.794  1.00  0.00    -0.084 Cl
ATOM     16  C   UNL     1      -3.114  -0.438  -1.548  1.00  0.00     0.021 A 
ATOM     17  C   UNL     1      -2.901  -1.143   0.751  1.00  0.00     0.021 A 
ATOM     18  Cl  UNL     1      -1.050  -0.243   2.515  1.00  0.00    -0.084 Cl
ATOM     19  C   UNL     1      -3.546  -1.223  -0.481  1.00  0.00     0.003 A 
ENDBRANCH   1  12
TORSDOF 2
