REMARK SMILES C[C@]12CCC(=O)C=C1[C@@H]1C[C@@H]1[C@H]1[C@@H]3[C@@H]4C[C@@H]4[C@@]4(CCC(=O)O4)[C@@]3(C)CC[C@@H]12
REMARK SMILES IDX 9 1 10 2 11 3 12 4 13 5 14 6 15 7 16 8 17 9 18 10 19 11
REMARK SMILES IDX 20 12 21 13 22 14 23 15 24 16 25 17 26 18 27 19 2 20 1 21
REMARK SMILES IDX 3 22 4 23 5 24 6 25 7 26 8 27
REMARK H PARENT
REMARK Flexibility Score: inf
ROOT
ATOM      1  C   UNL     1       2.409  -1.766   1.442  1.00  0.00     0.019 C 
ATOM      2  C   UNL     1       1.895  -2.891   0.560  1.00  0.00     0.013 C 
ATOM      3  C   UNL     1       0.922  -1.847   1.111  1.00  0.00     0.000 C 
ATOM      4  C   UNL     1       0.363  -0.845   0.076  1.00  0.00     0.001 C 
ATOM      5  C   UNL     1      -1.137  -0.596   0.328  1.00  0.00     0.006 C 
ATOM      6  C   UNL     1      -2.071  -1.789   0.555  1.00  0.00     0.001 C 
ATOM      7  C   UNL     1      -2.856  -2.425  -0.579  1.00  0.00     0.012 C 
ATOM      8  C   UNL     1      -3.448  -1.247   0.195  1.00  0.00     0.037 C 
ATOM      9  C   UNL     1      -3.301   0.206  -0.349  1.00  0.00     0.121 C 
ATOM     10  C   UNL     1      -3.915   1.194   0.689  1.00  0.00     0.061 C 
ATOM     11  C   UNL     1      -5.379   1.365   0.268  1.00  0.00     0.127 C 
ATOM     12  C   UNL     1      -5.331   0.956  -1.149  1.00  0.00     0.306 C 
ATOM     13  O   UNL     1      -6.272   1.124  -1.968  1.00  0.00    -0.252 OA
ATOM     14  O   UNL     1      -4.140   0.352  -1.488  1.00  0.00    -0.458 OA
ATOM     15  C   UNL     1      -1.777   0.397  -0.670  1.00  0.00     0.011 C 
ATOM     16  C   UNL     1      -1.534   0.123  -2.201  1.00  0.00     0.016 C 
ATOM     17  C   UNL     1      -1.114   1.766  -0.349  1.00  0.00     0.011 C 
ATOM     18  C   UNL     1       0.418   1.699  -0.578  1.00  0.00     0.005 C 
ATOM     19  C   UNL     1       1.122   0.524   0.187  1.00  0.00     0.003 C 
ATOM     20  C   UNL     1       2.652   0.369  -0.148  1.00  0.00    -0.007 C 
ATOM     21  C   UNL     1       2.881  -0.003  -1.640  1.00  0.00     0.016 C 
ATOM     22  C   UNL     1       3.401   1.703   0.161  1.00  0.00     0.019 C 
ATOM     23  C   UNL     1       4.925   1.593  -0.025  1.00  0.00     0.081 C 
ATOM     24  C   UNL     1       5.470   0.329   0.571  1.00  0.00     0.155 C 
ATOM     25  O   UNL     1       6.713   0.204   0.725  1.00  0.00    -0.295 OA
ATOM     26  C   UNL     1       4.576  -0.765   0.980  1.00  0.00     0.047 C 
ATOM     27  C   UNL     1       3.256  -0.732   0.734  1.00  0.00    -0.057 C 
ENDROOT
TORSDOF 0
