REMARK SMILES CCN(CC)CCCN(c1ccccc1)C1Cc2ccccc2C1
REMARK SMILES IDX 7 1 6 2 3 3 2 4 1 5 4 6 5 7 8 8 9 9 16 10 17 11 24 12 18 13
REMARK SMILES IDX 23 14 19 15 22 16 20 17 21 18 10 19 11 20 15 21 12 22 14 23
REMARK SMILES IDX 13 24
REMARK H PARENT
REMARK Flexibility Score: inf
ROOT
ATOM      1  C   UNL     1       1.521   0.054   0.148  1.00  0.00     0.037 C 
ENDROOT
BRANCH   1   2
ATOM      2  C   UNL     1       2.836   0.564   0.776  1.00  0.00     0.086 C 
BRANCH   2   3
ATOM      3  N   UNL     1       4.015   0.473  -0.123  1.00  0.00    -0.304 NA
BRANCH   3   4
ATOM      4  C   UNL     1       3.834   1.090  -1.457  1.00  0.00     0.081 C 
ATOM      5  C   UNL     1       3.562   2.593  -1.360  1.00  0.00     0.021 C 
ENDBRANCH   3   4
BRANCH   3   6
ATOM      6  C   UNL     1       4.556  -0.905  -0.208  1.00  0.00     0.081 C 
ATOM      7  C   UNL     1       5.723  -1.056   0.759  1.00  0.00     0.021 C 
ENDBRANCH   3   6
ENDBRANCH   2   3
ENDBRANCH   1   2
BRANCH   1   8
ATOM      8  C   UNL     1       0.419  -0.079   1.206  1.00  0.00     0.118 C 
BRANCH   8   9
ATOM      9  N   UNL     1      -0.848  -0.505   0.586  1.00  0.00    -0.368 N 
BRANCH   9  10
ATOM     10  C   UNL     1      -1.723   0.500  -0.064  1.00  0.00     0.091 C 
ATOM     11  C   UNL     1      -2.007   1.721   0.845  1.00  0.00     0.061 C 
ATOM     12  C   UNL     1      -3.120  -0.057  -0.453  1.00  0.00     0.061 C 
ATOM     13  C   UNL     1      -3.409   2.074   0.524  1.00  0.00    -0.043 A 
ATOM     14  C   UNL     1      -4.028   1.083  -0.196  1.00  0.00    -0.043 A 
ATOM     15  C   UNL     1      -4.098   3.227   0.911  1.00  0.00     0.004 A 
ATOM     16  C   UNL     1      -5.370   1.194  -0.568  1.00  0.00     0.004 A 
ATOM     17  C   UNL     1      -5.444   3.364   0.538  1.00  0.00     0.000 A 
ATOM     18  C   UNL     1      -6.080   2.349  -0.200  1.00  0.00     0.000 A 
ENDBRANCH   9  10
BRANCH   9  19
ATOM     19  C   UNL     1      -0.950  -1.898   0.229  1.00  0.00     0.037 A 
ATOM     20  C   UNL     1      -0.911  -2.296  -1.119  1.00  0.00     0.026 A 
ATOM     21  C   UNL     1      -1.054  -2.874   1.233  1.00  0.00     0.026 A 
ATOM     22  C   UNL     1      -0.991  -3.651  -1.455  1.00  0.00     0.002 A 
ATOM     23  C   UNL     1      -1.133  -4.229   0.893  1.00  0.00     0.002 A 
ATOM     24  C   UNL     1      -1.102  -4.616  -0.450  1.00  0.00     0.000 A 
ENDBRANCH   9  19
ENDBRANCH   8   9
ENDBRANCH   1   8
TORSDOF 8
