REMARK SMILES COCCOc1cnc(NS(=O)(=O)c2ccccc2)nc1
REMARK SMILES IDX 6 1 7 2 8 3 9 4 20 5 21 6 5 7 4 8 3 9 2 10 1 11 10 12 11 14
REMARK SMILES IDX 12 15 13 16 14 17 15 18 19 19 16 20 18 21 17 22
REMARK H PARENT 10 13
REMARK Flexibility Score: inf
ROOT
ATOM      1  C   UNL     1       1.510   0.696  -0.975  1.00  0.00     0.156 A 
ATOM      2  C   UNL     1       0.664   0.017  -0.082  1.00  0.00     0.163 A 
ATOM      3  N   UNL     1      -0.407  -0.671  -0.554  1.00  0.00    -0.217 NA
ATOM      4  C   UNL     1      -0.685  -0.717  -1.885  1.00  0.00     0.236 A 
ATOM      5  N   UNL     1       0.120  -0.063  -2.763  1.00  0.00    -0.217 NA
ATOM      6  C   UNL     1       1.202   0.637  -2.335  1.00  0.00     0.163 A 
ENDROOT
BRANCH   1   7
ATOM      7  O   UNL     1       2.635   1.431  -0.567  1.00  0.00    -0.488 OA
BRANCH   7   8
ATOM      8  C   UNL     1       3.145   1.494   0.766  1.00  0.00     0.258 C 
BRANCH   8   9
ATOM      9  C   UNL     1       3.888   0.206   1.131  1.00  0.00     0.201 C 
BRANCH   9  10
ATOM     10  O   UNL     1       4.895  -0.072   0.175  1.00  0.00    -0.381 OA
ATOM     11  C   UNL     1       6.146   0.398   0.626  1.00  0.00     0.195 C 
ENDBRANCH   9  10
ENDBRANCH   8   9
ENDBRANCH   7   8
ENDBRANCH   1   7
BRANCH   4  12
ATOM     12  N   UNL     1      -1.821  -1.440  -2.366  1.00  0.00    -0.247 N 
ATOM     13  H   UNL     1      -2.017  -1.465  -3.392  1.00  0.00     0.183 HD
BRANCH  12  14
ATOM     14  S   UNL     1      -2.908  -2.260  -1.295  1.00  0.00     0.264 S 
ATOM     15  O   UNL     1      -2.163  -3.362  -0.594  1.00  0.00    -0.201 OA
ATOM     16  O   UNL     1      -4.036  -2.857  -2.088  1.00  0.00    -0.201 OA
BRANCH  14  17
ATOM     17  C   UNL     1      -3.570  -1.121  -0.126  1.00  0.00     0.087 A 
ATOM     18  C   UNL     1      -3.916   0.175  -0.534  1.00  0.00     0.022 A 
ATOM     19  C   UNL     1      -3.753  -1.499   1.212  1.00  0.00     0.022 A 
ATOM     20  C   UNL     1      -4.434   1.087   0.391  1.00  0.00     0.001 A 
ATOM     21  C   UNL     1      -4.271  -0.585   2.135  1.00  0.00     0.001 A 
ATOM     22  C   UNL     1      -4.610   0.708   1.725  1.00  0.00     0.000 A 
ENDBRANCH  14  17
ENDBRANCH  12  14
ENDBRANCH   4  12
TORSDOF 7
