REMARK SMILES CC(C)(C)NCC(O)c1cc(Cl)c(N)c(Cl)c1
REMARK SMILES IDX 6 1 5 2 2 4 1 5 3 6 4 7 7 8 8 9 9 11 10 12 17 13 11 14 15 15
REMARK SMILES IDX 12 16 13 17 16 18 14 19
REMARK H PARENT 5 3 8 10 14 20 14 21
REMARK Flexibility Score: inf
ROOT
ATOM      1  C   UNL     1      -0.627   0.226   0.098  1.00  0.00     0.118 C 
ENDROOT
BRANCH   1   2
ATOM      2  N   UNL     1      -2.005   0.243   0.618  1.00  0.00    -0.309 NA
ATOM      3  H   UNL     1      -2.211   1.226   0.921  1.00  0.00     0.123 HD
BRANCH   2   4
ATOM      4  C   UNL     1      -3.051  -0.190  -0.343  1.00  0.00     0.010 C 
ATOM      5  C   UNL     1      -4.428   0.057   0.309  1.00  0.00     0.027 C 
ATOM      6  C   UNL     1      -2.986   0.610  -1.664  1.00  0.00     0.027 C 
ATOM      7  C   UNL     1      -2.931  -1.702  -0.633  1.00  0.00     0.027 C 
ENDBRANCH   2   4
ENDBRANCH   1   2
BRANCH   1   8
ATOM      8  C   UNL     1       0.372   0.358   1.256  1.00  0.00     0.158 C 
BRANCH   8   9
ATOM      9  O   UNL     1       0.209   1.604   1.883  1.00  0.00    -0.387 OA
ATOM     10  H   UNL     1       0.694   1.554   2.749  1.00  0.00     0.211 HD
ENDBRANCH   8   9
BRANCH   8  11
ATOM     11  C   UNL     1       1.789   0.211   0.743  1.00  0.00    -0.015 A 
ATOM     12  C   UNL     1       2.477  -0.999   0.910  1.00  0.00     0.029 A 
ATOM     13  C   UNL     1       2.409   1.260   0.048  1.00  0.00     0.029 A 
ATOM     14  C   UNL     1       3.775  -1.157   0.414  1.00  0.00     0.065 A 
ATOM     15  C   UNL     1       3.707   1.115  -0.453  1.00  0.00     0.065 A 
ATOM     16  Cl  UNL     1       4.574  -2.704   0.671  1.00  0.00    -0.082 Cl
ATOM     17  C   UNL     1       4.406  -0.097  -0.273  1.00  0.00     0.069 A 
ATOM     18  Cl  UNL     1       4.418   2.480  -1.308  1.00  0.00    -0.082 Cl
BRANCH  17  19
ATOM     19  N   UNL     1       5.740  -0.252  -0.784  1.00  0.00    -0.396 N 
ATOM     20  H   UNL     1       6.226   0.516  -1.295  1.00  0.00     0.156 HD
ATOM     21  H   UNL     1       6.275  -1.139  -0.663  1.00  0.00     0.156 HD
ENDBRANCH  17  19
ENDBRANCH   8  11
ENDBRANCH   1   8
TORSDOF 6
