REMARK SMILES NS(=O)(=O)c1cc(Cl)c(Cl)c(S(N)(=O)=O)c1
REMARK SMILES IDX 5 1 16 2 11 3 9 4 10 5 7 6 8 7 6 8 2 9 3 10 4 11 1 12 12 15
REMARK SMILES IDX 14 16 15 17 13 18
REMARK H PARENT 1 13 1 14 13 19 13 20
REMARK Flexibility Score: inf
ROOT
ATOM      1  C   UNL     1       1.191   0.357   0.252  1.00  0.00     0.085 A 
ATOM      2  C   UNL     1      -0.040  -0.307   0.303  1.00  0.00     0.045 A 
ATOM      3  C   UNL     1      -1.204   0.304  -0.186  1.00  0.00     0.103 A 
ATOM      4  C   UNL     1      -1.126   1.598  -0.747  1.00  0.00     0.079 A 
ATOM      5  Cl  UNL     1      -2.564   2.397  -1.389  1.00  0.00    -0.081 Cl
ATOM      6  C   UNL     1       0.116   2.258  -0.805  1.00  0.00     0.062 A 
ATOM      7  Cl  UNL     1       0.266   3.868  -1.499  1.00  0.00    -0.083 Cl
ATOM      8  C   UNL     1       1.265   1.636  -0.308  1.00  0.00     0.044 A 
ENDROOT
BRANCH   1   9
ATOM      9  S   UNL     1       2.646  -0.431   0.856  1.00  0.00     0.238 S 
ATOM     10  O   UNL     1       2.297  -1.320   2.017  1.00  0.00    -0.207 OA
ATOM     11  O   UNL     1       3.631   0.603   1.321  1.00  0.00    -0.207 OA
BRANCH   9  12
ATOM     12  N   UNL     1       3.357  -1.379  -0.403  1.00  0.00    -0.225 NA
ATOM     13  H   UNL     1       2.628  -2.056  -0.723  1.00  0.00     0.137 HD
ATOM     14  H   UNL     1       3.540  -0.734  -1.204  1.00  0.00     0.137 HD
ENDBRANCH   9  12
ENDBRANCH   1   9
BRANCH   3  15
ATOM     15  S   UNL     1      -2.744  -0.564  -0.100  1.00  0.00     0.239 S 
ATOM     16  O   UNL     1      -3.248  -0.818  -1.493  1.00  0.00    -0.207 OA
ATOM     17  O   UNL     1      -3.746   0.264   0.655  1.00  0.00    -0.207 OA
BRANCH  15  18
ATOM     18  N   UNL     1      -2.552  -2.081   0.710  1.00  0.00    -0.225 NA
ATOM     19  H   UNL     1      -2.370  -1.870   1.717  1.00  0.00     0.137 HD
ATOM     20  H   UNL     1      -3.476  -2.568   0.669  1.00  0.00     0.137 HD
ENDBRANCH  15  18
ENDBRANCH   3  15
TORSDOF 4
