REMARK SMILES CCCCC[C@H](O)/C=C/[C@@H]1[C@H]2C/C(=C/CCCC(=O)O)O[C@H]2C[C@H]1O
REMARK SMILES IDX 22 1 23 2 24 3 10 4 11 5 12 6 13 7 21 8 14 9 25 10 9 12 8 13
REMARK SMILES IDX 6 14 7 15 5 17 4 18 3 19 2 20 1 21 15 22 16 23 17 24 18 25
REMARK SMILES IDX 19 26 20 27
REMARK H PARENT 25 11 7 16 20 28
REMARK Flexibility Score: inf
ROOT
ATOM      1  C   UNL     1      -2.193   0.798  -2.077  1.00  0.00     0.179 C 
ATOM      2  C   UNL     1      -1.339   2.064  -2.074  1.00  0.00     0.077 C 
ATOM      3  C   UNL     1       0.055   1.626  -1.635  1.00  0.00     0.125 C 
ATOM      4  C   UNL     1      -0.182   0.419  -0.730  1.00  0.00     0.047 C 
ATOM      5  C   UNL     1      -1.392  -0.298  -1.354  1.00  0.00     0.047 C 
ATOM      6  C   UNL     1      -2.343  -0.911  -0.309  1.00  0.00     0.082 C 
ATOM      7  C   UNL     1      -3.494   0.023  -0.325  1.00  0.00     0.093 C 
ATOM      8  O   UNL     1      -3.378   0.973  -1.321  1.00  0.00    -0.495 OA
ATOM      9  C   UNL     1      -4.526  -0.041   0.519  1.00  0.00     0.015 C 
ENDROOT
BRANCH   3  10
ATOM     10  O   UNL     1       0.710   2.652  -0.937  1.00  0.00    -0.392 OA
ATOM     11  H   UNL     1       0.985   3.322  -1.616  1.00  0.00     0.210 HD
ENDBRANCH   3  10
BRANCH   4  12
ATOM     12  C   UNL     1       1.032  -0.477  -0.637  1.00  0.00    -0.022 C 
ATOM     13  C   UNL     1       2.128  -0.097   0.037  1.00  0.00     0.000 C 
BRANCH  13  14
ATOM     14  C   UNL     1       3.333  -1.003   0.137  1.00  0.00     0.137 C 
BRANCH  14  15
ATOM     15  O   UNL     1       3.878  -1.232  -1.140  1.00  0.00    -0.389 OA
ATOM     16  H   UNL     1       4.164  -0.354  -1.505  1.00  0.00     0.211 HD
ENDBRANCH  14  15
BRANCH  14  17
ATOM     17  C   UNL     1       4.391  -0.413   1.089  1.00  0.00     0.036 C 
BRANCH  17  18
ATOM     18  C   UNL     1       5.599  -1.351   1.247  1.00  0.00     0.003 C 
BRANCH  18  19
ATOM     19  C   UNL     1       6.564  -0.904   2.359  1.00  0.00    -0.000 C 
BRANCH  19  20
ATOM     20  C   UNL     1       7.213   0.474   2.136  1.00  0.00    -0.003 C 
ATOM     21  C   UNL     1       8.077   0.532   0.877  1.00  0.00     0.004 C 
ENDBRANCH  19  20
ENDBRANCH  18  19
ENDBRANCH  17  18
ENDBRANCH  14  17
ENDBRANCH  13  14
ENDBRANCH   4  12
BRANCH   9  22
ATOM     22  C   UNL     1      -5.672   0.931   0.462  1.00  0.00     0.031 C 
BRANCH  22  23
ATOM     23  C   UNL     1      -6.592   0.685  -0.747  1.00  0.00     0.016 C 
BRANCH  23  24
ATOM     24  C   UNL     1      -7.266  -0.697  -0.737  1.00  0.00     0.123 C 
BRANCH  24  25
ATOM     25  C   UNL     1      -8.204  -0.852   0.420  1.00  0.00     0.303 C 
ATOM     26  O   UNL     1      -9.346  -0.321   0.383  1.00  0.00    -0.252 OA
BRANCH  25  27
ATOM     27  O   UNL     1      -7.800  -1.556   1.550  1.00  0.00    -0.481 OA
ATOM     28  H   UNL     1      -8.416  -1.655   2.349  1.00  0.00     0.296 HD
ENDBRANCH  25  27
ENDBRANCH  24  25
ENDBRANCH  23  24
ENDBRANCH  22  23
ENDBRANCH   9  22
TORSDOF 13
