REMARK SMILES NS(=O)(=O)c1cc2c(cc1Cl)NC(C(Cl)Cl)NS2(=O)=O
REMARK SMILES IDX 5 1 10 2 11 3 9 4 8 5 12 6 13 7 17 8 18 9 19 10 20 11 7 12
REMARK SMILES IDX 6 13 2 16 3 17 4 18 1 19 14 22 15 23 16 24
REMARK H PARENT 12 14 17 15 1 20 1 21
REMARK Flexibility Score: inf
ROOT
ATOM      1  C   UNL     1       2.087   0.515  -0.131  1.00  0.00     0.102 A 
ATOM      2  C   UNL     1       1.922  -0.513  -1.083  1.00  0.00     0.063 A 
ATOM      3  Cl  UNL     1       3.231  -1.034  -2.138  1.00  0.00    -0.083 Cl
ATOM      4  C   UNL     1       0.684  -1.156  -1.207  1.00  0.00     0.049 A 
ATOM      5  C   UNL     1      -0.398  -0.789  -0.396  1.00  0.00     0.057 A 
ATOM      6  N   UNL     1      -1.664  -1.452  -0.553  1.00  0.00    -0.366 N 
ATOM      7  C   UNL     1      -2.947  -0.935  -0.055  1.00  0.00     0.195 C 
ATOM      8  N   UNL     1      -2.872  -0.466   1.341  1.00  0.00    -0.187 NA
ATOM      9  S   UNL     1      -1.551   0.624   1.625  1.00  0.00     0.244 S 
ATOM     10  O   UNL     1      -1.998   2.037   1.380  1.00  0.00    -0.207 OA
ATOM     11  O   UNL     1      -1.102   0.485   3.053  1.00  0.00    -0.207 OA
ATOM     12  C   UNL     1      -0.225   0.214   0.563  1.00  0.00     0.107 A 
ATOM     13  C   UNL     1       1.007   0.863   0.694  1.00  0.00     0.047 A 
ATOM     14  H   UNL     1      -1.695  -2.324  -1.130  1.00  0.00     0.162 HD
ATOM     15  H   UNL     1      -2.706  -1.302   1.948  1.00  0.00     0.143 HD
ENDROOT
BRANCH   1  16
ATOM     16  S   UNL     1       3.632   1.353   0.070  1.00  0.00     0.239 S 
ATOM     17  O   UNL     1       4.172   1.765  -1.271  1.00  0.00    -0.207 OA
ATOM     18  O   UNL     1       3.441   2.590   0.903  1.00  0.00    -0.207 OA
BRANCH  16  19
ATOM     19  N   UNL     1       4.766   0.315   0.863  1.00  0.00    -0.225 NA
ATOM     20  H   UNL     1       4.312  -0.015   1.744  1.00  0.00     0.137 HD
ATOM     21  H   UNL     1       4.894  -0.526   0.257  1.00  0.00     0.137 HD
ENDBRANCH  16  19
ENDBRANCH   1  16
BRANCH   7  22
ATOM     22  C   UNL     1      -3.582   0.091  -1.025  1.00  0.00     0.210 C 
ATOM     23  Cl  UNL     1      -2.485   1.390  -1.573  1.00  0.00    -0.102 Cl
ATOM     24  Cl  UNL     1      -5.048   0.823  -0.318  1.00  0.00    -0.102 Cl
ENDBRANCH   7  22
TORSDOF 3
