REMARK SMILES CC(C)(C)C(=O)OCC(=O)[C@H]1CC[C@H]2[C@@H]3CCC4=CC(=O)CC[C@]4(C)[C@H]3CC[C@]12C
REMARK SMILES IDX 8 1 9 2 10 3 11 4 12 5 29 6 13 7 14 8 28 9 30 10 15 11 27 12
REMARK SMILES IDX 16 13 26 14 17 15 24 16 18 17 23 18 25 19 19 20 22 21 20 22
REMARK SMILES IDX 21 23 7 24 5 25 6 26 2 27 1 28 3 29 4 30
REMARK H PARENT
REMARK Flexibility Score: inf
ROOT
ATOM      1  C   UNL     1       3.743   1.293  -0.436  1.00  0.00     0.308 C 
ENDROOT
BRANCH   1   2
ATOM      2  C   UNL     1       2.608   0.321  -0.214  1.00  0.00     0.173 C 
ATOM      3  O   UNL     1       2.721  -0.821  -0.636  1.00  0.00    -0.296 OA
BRANCH   2   4
ATOM      4  C   UNL     1       1.325   0.707   0.511  1.00  0.00     0.066 C 
ATOM      5  C   UNL     1       1.168   2.214   0.846  1.00  0.00     0.012 C 
ATOM      6  C   UNL     1       0.017   0.361  -0.242  1.00  0.00    -0.020 C 
ATOM      7  C   UNL     1      -0.340   2.520   0.801  1.00  0.00     0.005 C 
ATOM      8  C   UNL     1      -0.996   1.160   0.593  1.00  0.00    -0.001 C 
ATOM      9  C   UNL     1      -0.398  -1.126  -0.177  1.00  0.00     0.008 C 
ATOM     10  C   UNL     1       0.117   0.832  -1.730  1.00  0.00     0.012 C 
ATOM     11  C   UNL     1      -2.428   1.099   0.021  1.00  0.00    -0.003 C 
ATOM     12  C   UNL     1      -1.840  -1.329  -0.702  1.00  0.00     0.005 C 
ATOM     13  C   UNL     1      -3.399   1.916   0.890  1.00  0.00     0.008 C 
ATOM     14  C   UNL     1      -2.889  -0.398  -0.012  1.00  0.00     0.002 C 
ATOM     15  C   UNL     1      -4.814   1.862   0.323  1.00  0.00     0.032 C 
ATOM     16  C   UNL     1      -4.356  -0.569  -0.568  1.00  0.00    -0.008 C 
ATOM     17  C   UNL     1      -5.279   0.436   0.140  1.00  0.00    -0.060 C 
ATOM     18  C   UNL     1      -4.837  -2.029  -0.283  1.00  0.00     0.019 C 
ATOM     19  C   UNL     1      -4.429  -0.296  -2.093  1.00  0.00     0.016 C 
ATOM     20  C   UNL     1      -6.562   0.141   0.423  1.00  0.00     0.047 C 
ATOM     21  C   UNL     1      -6.332  -2.234  -0.544  1.00  0.00     0.081 C 
ATOM     22  C   UNL     1      -7.136  -1.182   0.150  1.00  0.00     0.155 C 
ATOM     23  O   UNL     1      -8.335  -1.415   0.455  1.00  0.00    -0.295 OA
ENDBRANCH   2   4
ENDBRANCH   1   2
BRANCH   1  24
ATOM     24  O   UNL     1       4.969   0.601  -0.667  1.00  0.00    -0.457 OA
BRANCH  24  25
ATOM     25  C   UNL     1       5.664  -0.088   0.338  1.00  0.00     0.311 C 
ATOM     26  O   UNL     1       5.259  -0.035   1.533  1.00  0.00    -0.252 OA
BRANCH  25  27
ATOM     27  C   UNL     1       6.886  -0.918  -0.002  1.00  0.00     0.060 C 
ATOM     28  C   UNL     1       8.088  -0.416   0.819  1.00  0.00     0.023 C 
ATOM     29  C   UNL     1       6.603  -2.391   0.342  1.00  0.00     0.023 C 
ATOM     30  C   UNL     1       7.222  -0.808  -1.504  1.00  0.00     0.023 C 
ENDBRANCH  25  27
ENDBRANCH  24  25
ENDBRANCH   1  24
TORSDOF 5
