REMARK SMILES COc1ccc(C(=O)c2ccccc2)c(O)c1
REMARK SMILES IDX 3 1 17 2 15 3 6 4 5 5 4 6 2 7 1 8 16 9 7 11 8 12 9 13 10 14
REMARK SMILES IDX 14 15 11 16 13 17 12 18
REMARK H PARENT 16 10
REMARK Flexibility Score: inf
ROOT
ATOM      1  C   UNL     1       2.897  -0.008  -0.752  1.00  0.00     0.122 A 
ATOM      2  C   UNL     1       2.589  -0.068   0.620  1.00  0.00     0.093 A 
ATOM      3  C   UNL     1       1.301   0.232   1.078  1.00  0.00     0.130 A 
ATOM      4  C   UNL     1       0.300   0.616   0.156  1.00  0.00     0.065 A 
ATOM      5  C   UNL     1       0.615   0.674  -1.212  1.00  0.00     0.020 A 
ATOM      6  C   UNL     1       1.899   0.361  -1.659  1.00  0.00     0.047 A 
ENDROOT
BRANCH   1   7
ATOM      7  O   UNL     1       4.173  -0.307  -1.252  1.00  0.00    -0.497 OA
ATOM      8  C   UNL     1       5.281  -0.696  -0.447  1.00  0.00     0.278 C 
ENDBRANCH   1   7
BRANCH   3   9
ATOM      9  O   UNL     1       1.044   0.116   2.446  1.00  0.00    -0.507 OA
ATOM     10  H   UNL     1       0.122   0.232   2.846  1.00  0.00     0.293 HD
ENDBRANCH   3   9
BRANCH   4  11
ATOM     11  C   UNL     1      -1.057   1.007   0.598  1.00  0.00     0.196 C 
ATOM     12  O   UNL     1      -1.173   1.893   1.488  1.00  0.00    -0.288 OA
BRANCH  11  13
ATOM     13  C   UNL     1      -2.279   0.412  -0.003  1.00  0.00     0.023 A 
ATOM     14  C   UNL     1      -2.231  -0.826  -0.673  1.00  0.00     0.012 A 
ATOM     15  C   UNL     1      -3.516   1.074   0.112  1.00  0.00     0.012 A 
ATOM     16  C   UNL     1      -3.391  -1.378  -1.226  1.00  0.00     0.001 A 
ATOM     17  C   UNL     1      -4.673   0.518  -0.444  1.00  0.00     0.001 A 
ATOM     18  C   UNL     1      -4.610  -0.706  -1.114  1.00  0.00     0.000 A 
ENDBRANCH  11  13
ENDBRANCH   4  11
TORSDOF 4
