REMARK SMILES O=[N+]([O-])O[C@@H]1CO[C@H]2[C@@H]1OC[C@@H]2O
REMARK SMILES IDX 8 1 7 2 6 3 5 4 9 5 10 6 11 7 12 8 13 9 4 11 2 12 3 13 1 14
REMARK H PARENT 13 10
REMARK Flexibility Score: inf
ROOT
ATOM      1  C   UNL     1      -0.942  -0.827  -0.465  1.00  0.00     0.180 C 
ATOM      2  O   UNL     1       0.122  -1.192  -1.316  1.00  0.00    -0.370 OA
ATOM      3  C   UNL     1       1.246  -1.403  -0.496  1.00  0.00     0.195 C 
ATOM      4  C   UNL     1       1.087  -0.566   0.759  1.00  0.00     0.224 C 
ATOM      5  C   UNL     1      -0.414  -0.506   0.918  1.00  0.00     0.181 C 
ATOM      6  O   UNL     1      -0.852   0.775   1.323  1.00  0.00    -0.370 OA
ATOM      7  C   UNL     1      -1.830   1.183   0.398  1.00  0.00     0.195 C 
ATOM      8  C   UNL     1      -1.576   0.463  -0.914  1.00  0.00     0.171 C 
ENDROOT
BRANCH   8   9
ATOM      9  O   UNL     1      -2.772   0.221  -1.607  1.00  0.00    -0.388 OA
ATOM     10  H   UNL     1      -3.055   1.092  -1.990  1.00  0.00     0.211 HD
ENDBRANCH   8   9
BRANCH   4  11
ATOM     11  O   UNL     1       1.630   0.742   0.556  1.00  0.00    -0.305 OA
BRANCH  11  12
ATOM     12  N   UNL     1       2.988   0.991   0.569  1.00  0.00     0.294 N 
ATOM     13  O   UNL     1       3.441   2.269   0.342  1.00  0.00    -0.109 OA
ATOM     14  O   UNL     1       3.810   0.081   0.808  1.00  0.00    -0.109 OA
ENDBRANCH  11  12
ENDBRANCH   4  11
TORSDOF 3
