REMARK SMILES O=C(Nc1cccc2c(=O)cc(-c3nn[nH]n3)oc12)c1ccc(OCCCCc2ccccc2)cc1
REMARK SMILES IDX 25 1 24 2 23 3 20 4 21 5 36 6 22 7 35 8 2 9 1 10 3 11 4 13
REMARK SMILES IDX 19 14 5 15 18 16 8 17 6 18 12 19 9 20 7 21 11 22 10 23 13 24
REMARK SMILES IDX 17 25 14 26 16 27 15 28 26 30 27 31 28 32 29 33 30 34 34 35
REMARK SMILES IDX 31 36 33 37 32 38
REMARK H PARENT 3 12 16 29
REMARK Flexibility Score: inf
ROOT
ATOM      1  C   UNL     1       3.495   0.266  -1.434  1.00  0.00     0.229 C 
ENDROOT
BRANCH   1   2
ATOM      2  O   UNL     1       2.602  -0.147  -0.403  1.00  0.00    -0.494 OA
BRANCH   2   3
ATOM      3  C   UNL     1       1.257  -0.488  -0.608  1.00  0.00     0.119 A 
ATOM      4  C   UNL     1      -1.459  -1.198  -0.922  1.00  0.00     0.040 A 
ATOM      5  C   UNL     1      -0.852  -1.227   0.346  1.00  0.00     0.017 A 
ATOM      6  C   UNL     1      -0.692  -0.799  -2.031  1.00  0.00     0.017 A 
ATOM      7  C   UNL     1       0.493  -0.879   0.497  1.00  0.00     0.047 A 
ATOM      8  C   UNL     1       0.654  -0.450  -1.879  1.00  0.00     0.047 A 
BRANCH   4   9
ATOM      9  C   UNL     1      -2.890  -1.546  -1.091  1.00  0.00     0.255 C 
ATOM     10  O   UNL     1      -3.493  -1.205  -2.146  1.00  0.00    -0.269 OA
ATOM     11  N   UNL     1      -3.595  -2.287  -0.081  1.00  0.00    -0.319 N 
ATOM     12  H   UNL     1      -3.057  -2.972   0.495  1.00  0.00     0.170 HD
BRANCH  11  13
ATOM     13  C   UNL     1      -5.029  -2.293   0.025  1.00  0.00     0.085 A 
ATOM     14  C   UNL     1      -5.778  -1.102  -0.077  1.00  0.00     0.162 A 
ATOM     15  C   UNL     1      -5.691  -3.502   0.284  1.00  0.00     0.030 A 
ATOM     16  O   UNL     1      -5.158   0.062  -0.256  1.00  0.00    -0.450 OA
ATOM     17  C   UNL     1      -7.189  -1.142   0.031  1.00  0.00     0.067 A 
ATOM     18  C   UNL     1      -7.083  -3.540   0.393  1.00  0.00     0.003 A 
ATOM     19  C   UNL     1      -5.802   1.221  -0.361  1.00  0.00     0.179 A 
ATOM     20  C   UNL     1      -7.900   0.064  -0.081  1.00  0.00     0.193 A 
ATOM     21  C   UNL     1      -7.833  -2.370   0.260  1.00  0.00     0.016 A 
ATOM     22  C   UNL     1      -7.201   1.255  -0.280  1.00  0.00     0.104 A 
ATOM     23  O   UNL     1      -9.158   0.088  -0.001  1.00  0.00    -0.289 OA
BRANCH  19  24
ATOM     24  C   UNL     1      -5.021   2.451  -0.561  1.00  0.00     0.239 A 
ATOM     25  N   UNL     1      -5.545   3.688  -0.659  1.00  0.00    -0.130 NA
ATOM     26  N   UNL     1      -3.677   2.479  -0.666  1.00  0.00    -0.105 NA
ATOM     27  N   UNL     1      -4.492   4.468  -0.825  1.00  0.00    -0.177 N 
ATOM     28  N   UNL     1      -3.377   3.757  -0.831  1.00  0.00    -0.050 NA
ATOM     29  H   UNL     1      -4.534   5.506  -0.935  1.00  0.00     0.216 HD
ENDBRANCH  19  24
ENDBRANCH  11  13
ENDBRANCH   4   9
ENDBRANCH   2   3
ENDBRANCH   1   2
BRANCH   1  30
ATOM     30  C   UNL     1       4.881   0.537  -0.848  1.00  0.00     0.042 C 
BRANCH  30  31
ATOM     31  C   UNL     1       5.495  -0.733  -0.235  1.00  0.00     0.008 C 
BRANCH  31  32
ATOM     32  C   UNL     1       6.943  -0.517   0.226  1.00  0.00     0.035 C 
BRANCH  32  33
ATOM     33  C   UNL     1       7.032   0.442   1.386  1.00  0.00    -0.048 A 
ATOM     34  C   UNL     1       7.407   1.780   1.176  1.00  0.00     0.004 A 
ATOM     35  C   UNL     1       6.712   0.012   2.684  1.00  0.00     0.004 A 
ATOM     36  C   UNL     1       7.471   2.670   2.252  1.00  0.00     0.000 A 
ATOM     37  C   UNL     1       6.778   0.906   3.758  1.00  0.00     0.000 A 
ATOM     38  C   UNL     1       7.158   2.233   3.542  1.00  0.00     0.000 A 
ENDBRANCH  32  33
ENDBRANCH  31  32
ENDBRANCH  30  31
ENDBRANCH   1  30
TORSDOF 9
