REMARK SMILES C=CCN1CC[C@]23c4c5ccc(O)c4O[C@H]2C(=O)CC[C@@]3(O)[C@H]1C5
REMARK SMILES IDX 12 1 11 2 10 3 9 4 24 5 23 6 4 7 5 8 6 9 7 10 16 11 15 12
REMARK SMILES IDX 14 13 8 14 17 15 18 16 19 17 20 18 21 19 13 20 22 22 3 24
REMARK SMILES IDX 2 25 1 26
REMARK H PARENT 13 21 22 23
REMARK Flexibility Score: inf
ROOT
ATOM      1  C   UNL     1      -2.980  -1.056   1.996  1.00  0.00     0.158 A 
ATOM      2  C   UNL     1      -2.203  -0.731   3.127  1.00  0.00     0.050 A 
ATOM      3  C   UNL     1      -0.930  -0.140   2.968  1.00  0.00     0.008 A 
ATOM      4  C   UNL     1      -0.397   0.051   1.679  1.00  0.00    -0.038 A 
ATOM      5  C   UNL     1       0.784   0.960   1.434  1.00  0.00     0.058 C 
ATOM      6  C   UNL     1       1.232   0.946  -0.054  1.00  0.00     0.094 C 
ATOM      7  N   UNL     1       2.020  -0.312  -0.233  1.00  0.00    -0.293 NA
ATOM      8  C   UNL     1       1.585  -1.209  -1.327  1.00  0.00     0.086 C 
ATOM      9  C   UNL     1       0.066  -1.482  -1.307  1.00  0.00     0.035 C 
ATOM     10  C   UNL     1      -0.795  -0.259  -0.860  1.00  0.00     0.075 C 
ATOM     11  C   UNL     1      -2.234  -0.308  -1.497  1.00  0.00     0.253 C 
ATOM     12  O   UNL     1      -3.062  -0.896  -0.484  1.00  0.00    -0.477 OA
ATOM     13  C   UNL     1      -2.422  -0.843   0.736  1.00  0.00     0.166 A 
ATOM     14  C   UNL     1      -1.140  -0.413   0.590  1.00  0.00     0.015 A 
ATOM     15  C   UNL     1      -2.814   1.044  -1.871  1.00  0.00     0.174 C 
ATOM     16  O   UNL     1      -3.931   1.071  -2.364  1.00  0.00    -0.295 OA
ATOM     17  C   UNL     1      -2.080   2.356  -1.709  1.00  0.00     0.083 C 
ATOM     18  C   UNL     1      -0.888   2.283  -0.750  1.00  0.00     0.046 C 
ATOM     19  C   UNL     1       0.009   1.057  -1.044  1.00  0.00     0.095 C 
ENDROOT
BRANCH   1  20
ATOM     20  O   UNL     1      -4.278  -1.543   2.121  1.00  0.00    -0.504 OA
ATOM     21  H   UNL     1      -4.700  -1.691   3.030  1.00  0.00     0.293 HD
ENDBRANCH   1  20
BRANCH  19  22
ATOM     22  O   UNL     1       0.516   1.197  -2.355  1.00  0.00    -0.387 OA
ATOM     23  H   UNL     1      -0.171   0.887  -3.001  1.00  0.00     0.211 HD
ENDBRANCH  19  22
BRANCH   7  24
ATOM     24  C   UNL     1       3.474  -0.052  -0.285  1.00  0.00     0.111 C 
BRANCH  24  25
ATOM     25  C   UNL     1       4.255  -1.284   0.084  1.00  0.00    -0.019 C 
ATOM     26  C   UNL     1       4.145  -1.841   1.293  1.00  0.00     0.005 C 
ENDBRANCH  24  25
ENDBRANCH   7  24
TORSDOF 4
