REMARK SMILES CC(=O)c1ccc2c(c1)N(CC(C)N(C)C)c1ccccc1S2
REMARK SMILES IDX 11 1 12 2 13 3 14 4 15 5 16 6 10 7 17 8 8 9 18 10 22 11 7 12
REMARK SMILES IDX 9 13 19 14 21 15 23 16 6 17 4 18 20 19 5 20 2 21 1 22 3 23
REMARK H PARENT
REMARK Flexibility Score: inf
ROOT
ATOM      1  C   UNL     1      -0.840   0.385  -1.288  1.00  0.00     0.141 C 
ENDROOT
BRANCH   1   2
ATOM      2  C   UNL     1      -1.829   0.912  -0.212  1.00  0.00     0.072 C 
ATOM      3  C   UNL     1      -1.907   2.456  -0.233  1.00  0.00     0.026 C 
BRANCH   2   4
ATOM      4  N   UNL     1      -3.159   0.259  -0.362  1.00  0.00    -0.305 NA
ATOM      5  C   UNL     1      -3.909   0.224   0.905  1.00  0.00     0.105 C 
ATOM      6  C   UNL     1      -3.999   0.819  -1.438  1.00  0.00     0.105 C 
ENDBRANCH   2   4
ENDBRANCH   1   2
BRANCH   1   7
ATOM      7  N   UNL     1       0.159  -0.541  -0.728  1.00  0.00    -0.338 N 
ATOM      8  C   UNL     1      -0.044  -1.970  -0.777  1.00  0.00     0.055 A 
ATOM      9  C   UNL     1       1.472  -0.069  -0.354  1.00  0.00     0.056 A 
ATOM     10  C   UNL     1      -1.201  -2.558  -0.240  1.00  0.00     0.027 A 
ATOM     11  C   UNL     1       1.002  -2.799  -1.225  1.00  0.00     0.036 A 
ATOM     12  C   UNL     1       2.606  -0.783  -0.776  1.00  0.00     0.036 A 
ATOM     13  C   UNL     1       1.629   1.005   0.536  1.00  0.00     0.039 A 
ATOM     14  C   UNL     1      -1.311  -3.949  -0.157  1.00  0.00     0.002 A 
ATOM     15  C   UNL     1       0.899  -4.190  -1.117  1.00  0.00     0.017 A 
ATOM     16  S   UNL     1       2.430  -2.062  -2.024  1.00  0.00    -0.086 SA
ATOM     17  C   UNL     1       3.871  -0.450  -0.290  1.00  0.00     0.018 A 
ATOM     18  C   UNL     1       2.905   1.370   1.010  1.00  0.00     0.019 A 
ATOM     19  C   UNL     1      -0.261  -4.764  -0.588  1.00  0.00     0.001 A 
ATOM     20  C   UNL     1       4.023   0.621   0.594  1.00  0.00     0.013 A 
BRANCH  18  21
ATOM     21  C   UNL     1       3.049   2.518   1.946  1.00  0.00     0.159 C 
ATOM     22  C   UNL     1       4.391   2.985   2.429  1.00  0.00     0.093 C 
ATOM     23  O   UNL     1       2.022   3.126   2.355  1.00  0.00    -0.295 OA
ENDBRANCH  18  21
ENDBRANCH   1   7
TORSDOF 4
