REMARK SMILES O=C1NC(c2ccccc2)(c2ccccc2)C(=O)N1COP(=O)(O)O
REMARK SMILES IDX 20 1 21 2 22 3 23 4 24 5 25 7 19 9 2 10 17 11 1 12 3 13 4 14
REMARK SMILES IDX 18 15 5 17 6 18 10 19 7 20 9 21 8 22 11 23 12 24 16 25 13 26
REMARK SMILES IDX 15 27 14 28
REMARK H PARENT 24 6 25 8 3 16
REMARK Flexibility Score: inf
ROOT
ATOM      1  C   UNL     1       3.129  -0.351  -0.143  1.00  0.00     0.306 C 
ENDROOT
BRANCH   1   2
ATOM      2  O   UNL     1       3.310   1.043  -0.077  1.00  0.00    -0.265 OA
BRANCH   2   3
ATOM      3  P   UNL     1       4.937   1.362   0.322  1.00  0.00     0.471 P 
ATOM      4  O   UNL     1       5.844   0.902  -0.799  1.00  0.00    -0.228 OA
BRANCH   3   5
ATOM      5  O   UNL     1       5.124   3.030   0.530  1.00  0.00    -0.303 OA
ATOM      6  H   UNL     1       6.061   3.145   0.829  1.00  0.00     0.223 HD
ENDBRANCH   3   5
BRANCH   3   7
ATOM      7  O   UNL     1       5.359   0.580   1.765  1.00  0.00    -0.303 OA
ATOM      8  H   UNL     1       5.671  -0.319   1.492  1.00  0.00     0.223 HD
ENDBRANCH   3   7
ENDBRANCH   2   3
ENDBRANCH   1   2
BRANCH   1   9
ATOM      9  N   UNL     1       1.758  -0.633  -0.552  1.00  0.00    -0.237 N 
ATOM     10  C   UNL     1       1.248  -0.515  -1.868  1.00  0.00     0.327 C 
ATOM     11  C   UNL     1       0.605  -0.496   0.271  1.00  0.00     0.267 C 
ATOM     12  O   UNL     1       1.971  -0.499  -2.898  1.00  0.00    -0.248 OA
ATOM     13  N   UNL     1      -0.166  -0.381  -1.908  1.00  0.00    -0.315 N 
ATOM     14  C   UNL     1      -0.670  -0.346  -0.532  1.00  0.00     0.172 C 
ATOM     15  O   UNL     1       0.659  -0.489   1.531  1.00  0.00    -0.271 OA
ATOM     16  H   UNL     1      -0.736  -0.256  -2.774  1.00  0.00     0.167 HD
BRANCH  14  17
ATOM     17  C   UNL     1      -1.376   0.996  -0.317  1.00  0.00    -0.008 A 
ATOM     18  C   UNL     1      -0.716   2.110   0.250  1.00  0.00     0.007 A 
ATOM     19  C   UNL     1      -2.688   1.175  -0.803  1.00  0.00     0.007 A 
ATOM     20  C   UNL     1      -1.374   3.336   0.382  1.00  0.00     0.000 A 
ATOM     21  C   UNL     1      -3.340   2.403  -0.667  1.00  0.00     0.000 A 
ATOM     22  C   UNL     1      -2.686   3.481  -0.069  1.00  0.00     0.000 A 
ENDBRANCH  14  17
BRANCH  14  23
ATOM     23  C   UNL     1      -1.578  -1.538  -0.227  1.00  0.00    -0.008 A 
ATOM     24  C   UNL     1      -2.300  -1.572   0.984  1.00  0.00     0.007 A 
ATOM     25  C   UNL     1      -1.667  -2.649  -1.093  1.00  0.00     0.007 A 
ATOM     26  C   UNL     1      -3.114  -2.664   1.300  1.00  0.00     0.000 A 
ATOM     27  C   UNL     1      -2.483  -3.738  -0.771  1.00  0.00     0.000 A 
ATOM     28  C   UNL     1      -3.208  -3.744   0.421  1.00  0.00     0.000 A 
ENDBRANCH  14  23
ENDBRANCH   1   9
TORSDOF 7
