REMARK SMILES C[C@H](CS)C(=O)N1CCC[C@H]1C(=O)O
REMARK SMILES IDX 5 1 6 2 2 3 1 4 3 5 4 6 7 8 8 9 11 10 9 11 10 12 12 13 13 14
REMARK SMILES IDX 14 15
REMARK H PARENT 4 7 14 16
REMARK Flexibility Score: inf
ROOT
ATOM      1  C   UNL     1       0.837  -0.900   0.098  1.00  0.00     0.226 C 
ATOM      2  O   UNL     1       1.327  -1.922   0.655  1.00  0.00    -0.275 OA
ENDROOT
BRANCH   1   3
ATOM      3  C   UNL     1       1.776   0.114  -0.526  1.00  0.00     0.085 C 
ATOM      4  C   UNL     1       2.892  -0.576  -1.325  1.00  0.00     0.019 C 
BRANCH   3   5
ATOM      5  C   UNL     1       2.342   1.090   0.525  1.00  0.00     0.079 C 
BRANCH   5   6
ATOM      6  S   UNL     1       3.371   0.276   1.797  1.00  0.00    -0.179 SA
ATOM      7  H   UNL     1       2.257  -0.160   2.539  1.00  0.00     0.102 HD
ENDBRANCH   5   6
ENDBRANCH   3   5
ENDBRANCH   1   3
BRANCH   1   8
ATOM      8  N   UNL     1      -0.595  -0.717   0.113  1.00  0.00    -0.329 N 
ATOM      9  C   UNL     1      -1.482  -1.660   0.776  1.00  0.00     0.120 C 
ATOM     10  C   UNL     1      -1.327   0.320  -0.608  1.00  0.00     0.195 C 
ATOM     11  C   UNL     1      -2.892  -1.119   0.578  1.00  0.00     0.024 C 
ATOM     12  C   UNL     1      -2.792  -0.121  -0.571  1.00  0.00     0.039 C 
BRANCH  10  13
ATOM     13  C   UNL     1      -1.147   1.655   0.059  1.00  0.00     0.326 C 
ATOM     14  O   UNL     1      -1.333   1.778   1.300  1.00  0.00    -0.250 OA
BRANCH  13  15
ATOM     15  O   UNL     1      -0.792   2.764  -0.702  1.00  0.00    -0.480 OA
ATOM     16  H   UNL     1      -0.667   3.671  -0.270  1.00  0.00     0.296 HD
ENDBRANCH  13  15
ENDBRANCH  10  13
ENDBRANCH   1   8
TORSDOF 6
