REMARK SMILES COc1ccc(C(=O)Nc2ccccc2CCC2CCCCN2C)cc1
REMARK SMILES IDX 10 1 11 2 12 3 13 4 14 5 15 6 9 7 7 8 8 9 6 11 3 12 4 13
REMARK SMILES IDX 26 14 5 15 25 16 2 17 1 18 16 19 17 20 18 21 19 22 23 23
REMARK SMILES IDX 20 24 22 25 24 26 21 27
REMARK H PARENT 9 10
REMARK Flexibility Score: inf
ROOT
ATOM      1  C   UNL     1       0.136   2.777  -0.041  1.00  0.00     0.044 A 
ATOM      2  C   UNL     1       0.262   3.772  -1.028  1.00  0.00     0.026 A 
ATOM      3  C   UNL     1      -0.602   4.867  -1.052  1.00  0.00     0.002 A 
ATOM      4  C   UNL     1      -1.595   4.994  -0.083  1.00  0.00     0.000 A 
ATOM      5  C   UNL     1      -1.730   4.025   0.912  1.00  0.00     0.006 A 
ATOM      6  C   UNL     1      -0.878   2.904   0.947  1.00  0.00    -0.024 A 
ENDROOT
BRANCH   1   7
ATOM      7  N   UNL     1       1.075   1.688  -0.014  1.00  0.00    -0.322 N 
ATOM      8  C   UNL     1       1.442   0.942  -1.188  1.00  0.00     0.255 C 
ATOM      9  O   UNL     1       0.846   1.159  -2.279  1.00  0.00    -0.269 OA
ATOM     10  H   UNL     1       1.477   1.404   0.905  1.00  0.00     0.170 HD
BRANCH   8  11
ATOM     11  C   UNL     1       2.469  -0.127  -1.125  1.00  0.00     0.040 A 
ATOM     12  C   UNL     1       4.391  -2.192  -1.005  1.00  0.00     0.118 A 
ATOM     13  C   UNL     1       4.441  -1.123  -0.104  1.00  0.00     0.047 A 
ATOM     14  C   UNL     1       3.378  -2.219  -1.981  1.00  0.00     0.047 A 
ATOM     15  C   UNL     1       3.494  -0.096  -0.163  1.00  0.00     0.017 A 
ATOM     16  C   UNL     1       2.430  -1.193  -2.041  1.00  0.00     0.017 A 
BRANCH  12  17
ATOM     17  O   UNL     1       5.361  -3.200  -0.899  1.00  0.00    -0.497 OA
ATOM     18  C   UNL     1       5.434  -4.338  -1.752  1.00  0.00     0.278 C 
ENDBRANCH  12  17
ENDBRANCH   8  11
ENDBRANCH   1   7
BRANCH   6  19
ATOM     19  C   UNL     1      -1.102   1.869   2.034  1.00  0.00     0.039 C 
BRANCH  19  20
ATOM     20  C   UNL     1      -2.425   1.103   1.861  1.00  0.00     0.024 C 
BRANCH  20  21
ATOM     21  C   UNL     1      -2.474   0.213   0.596  1.00  0.00     0.056 C 
ATOM     22  C   UNL     1      -3.841  -0.507   0.487  1.00  0.00     0.019 C 
ATOM     23  N   UNL     1      -1.336  -0.740   0.490  1.00  0.00    -0.303 NA
ATOM     24  C   UNL     1      -3.828  -1.662  -0.531  1.00  0.00     0.003 C 
ATOM     25  C   UNL     1      -1.315  -1.458  -0.816  1.00  0.00     0.084 C 
ATOM     26  C   UNL     1      -1.229  -1.680   1.625  1.00  0.00     0.105 C 
ATOM     27  C   UNL     1      -2.682  -1.524  -1.531  1.00  0.00     0.016 C 
ENDBRANCH  20  21
ENDBRANCH  19  20
ENDBRANCH   6  19
TORSDOF 6
