REMARK SMILES CC(C)n1c(/C=C/C(O)CC(O)CC(=O)O)c(-c2ccc(F)cc2)c2ccccc21
REMARK SMILES IDX 10 1 8 2 7 3 6 4 5 5 4 6 30 7 17 8 25 9 29 10 26 11 28 12
REMARK SMILES IDX 27 13 2 14 1 15 3 16 18 17 19 18 24 19 20 20 23 21 21 22
REMARK SMILES IDX 22 23 9 24 11 26 12 27 13 29 14 30 15 31 16 32
REMARK H PARENT 9 25 12 28 16 33
REMARK Flexibility Score: inf
ROOT
ATOM      1  C   UNL     1       3.439   0.530   0.210  1.00  0.00     0.068 C 
ENDROOT
BRANCH   1   2
ATOM      2  C   UNL     1       2.501  -0.372  -0.611  1.00  0.00     0.140 C 
BRANCH   2   3
ATOM      3  C   UNL     1       1.085  -0.240  -0.118  1.00  0.00     0.006 C 
ATOM      4  C   UNL     1       0.112  -1.028  -0.585  1.00  0.00     0.025 C 
BRANCH   4   5
ATOM      5  C   UNL     1      -1.293  -0.887  -0.140  1.00  0.00     0.050 A 
ATOM      6  N   UNL     1      -2.115  -1.938   0.149  1.00  0.00    -0.338 N 
ATOM      7  C   UNL     1      -3.307  -1.384   0.495  1.00  0.00     0.049 A 
ATOM      8  C   UNL     1      -1.967   0.328   0.028  1.00  0.00     0.015 A 
ATOM      9  C   UNL     1      -3.242  -0.010   0.432  1.00  0.00     0.008 A 
ATOM     10  C   UNL     1      -4.506  -2.023   0.850  1.00  0.00     0.027 A 
ATOM     11  C   UNL     1      -4.351   0.799   0.693  1.00  0.00     0.011 A 
ATOM     12  C   UNL     1      -5.630  -1.229   1.136  1.00  0.00     0.002 A 
ATOM     13  C   UNL     1      -5.553   0.175   1.056  1.00  0.00     0.001 A 
BRANCH   6  14
ATOM     14  C   UNL     1      -1.733  -3.367   0.125  1.00  0.00     0.081 C 
ATOM     15  C   UNL     1      -2.501  -4.136  -0.956  1.00  0.00     0.031 C 
ATOM     16  C   UNL     1      -1.857  -4.013   1.510  1.00  0.00     0.031 C 
ENDBRANCH   6  14
BRANCH   8  17
ATOM     17  C   UNL     1      -1.466   1.689  -0.262  1.00  0.00    -0.015 A 
ATOM     18  C   UNL     1      -1.595   2.709   0.694  1.00  0.00     0.012 A 
ATOM     19  C   UNL     1      -0.841   1.970  -1.489  1.00  0.00     0.012 A 
ATOM     20  C   UNL     1      -1.102   3.990   0.427  1.00  0.00     0.040 A 
ATOM     21  C   UNL     1      -0.347   3.251  -1.751  1.00  0.00     0.040 A 
ATOM     22  C   UNL     1      -0.478   4.261  -0.794  1.00  0.00     0.123 A 
ATOM     23  F   UNL     1       0.003   5.503  -1.049  1.00  0.00    -0.207 F 
ENDBRANCH   8  17
ENDBRANCH   4   5
ENDBRANCH   2   3
BRANCH   2  24
ATOM     24  O   UNL     1       2.560   0.005  -1.964  1.00  0.00    -0.389 OA
ATOM     25  H   UNL     1       2.328  -0.797  -2.500  1.00  0.00     0.211 HD
ENDBRANCH   2  24
ENDBRANCH   1   2
BRANCH   1  26
ATOM     26  C   UNL     1       4.917   0.393  -0.222  1.00  0.00     0.128 C 
BRANCH  26  27
ATOM     27  O   UNL     1       5.350  -0.939  -0.100  1.00  0.00    -0.392 OA
ATOM     28  H   UNL     1       5.273  -1.193   0.857  1.00  0.00     0.210 HD
ENDBRANCH  26  27
BRANCH  26  29
ATOM     29  C   UNL     1       5.842   1.319   0.592  1.00  0.00     0.154 C 
BRANCH  29  30
ATOM     30  C   UNL     1       5.594   2.765   0.286  1.00  0.00     0.305 C 
ATOM     31  O   UNL     1       4.970   3.487   1.109  1.00  0.00    -0.252 OA
BRANCH  30  32
ATOM     32  O   UNL     1       6.035   3.304  -0.919  1.00  0.00    -0.481 OA
ATOM     33  H   UNL     1       5.865   4.276  -1.146  1.00  0.00     0.296 HD
ENDBRANCH  30  32
ENDBRANCH  29  30
ENDBRANCH  26  29
ENDBRANCH   1  26
TORSDOF 11
