REMARK SMILES COC(=O)[C@H]1[C@H]2C[C@@H]3c4[nH]c5cc(OC)ccc5c4CCN3C[C@H]2C[C@@H](OC(=O)C=Cc2cc(OC)c(OC)c(OC)c2)[C@@H]1OC
REMARK SMILES IDX 28 1 29 2 27 3 26 4 24 5 25 6 6 7 23 8 5 9 7 10 22 11 44 12
REMARK SMILES IDX 8 13 21 14 9 15 20 16 19 17 10 18 18 19 11 20 17 22 12 23
REMARK SMILES IDX 16 24 13 25 3 26 4 27 2 28 1 29 45 30 46 31 14 32 15 33
REMARK SMILES IDX 30 34 31 35 32 36 33 37 43 38 34 39 40 40 37 41 35 42 36 43
REMARK SMILES IDX 41 44 42 45 38 46 39 47
REMARK H PARENT 10 21
REMARK Flexibility Score: inf
ROOT
ATOM      1  C   UNL     1      -2.751   1.101  -0.354  1.00  0.00     0.331 C 
ATOM      2  O   UNL     1      -3.543   0.687  -1.248  1.00  0.00    -0.247 OA
ENDROOT
BRANCH   1   3
ATOM      3  O   UNL     1      -1.746   0.270   0.135  1.00  0.00    -0.456 OA
BRANCH   3   4
ATOM      4  C   UNL     1      -1.669  -1.118  -0.181  1.00  0.00     0.207 C 
ATOM      5  C   UNL     1       0.621  -1.635   0.896  1.00  0.00     0.011 C 
ATOM      6  C   UNL     1      -0.899  -1.872   0.913  1.00  0.00     0.053 C 
ATOM      7  C   UNL     1       1.227  -1.827  -0.509  1.00  0.00     0.012 C 
ATOM      8  C   UNL     1       1.029  -0.295   1.540  1.00  0.00     0.089 C 
ATOM      9  C   UNL     1       0.448  -1.140  -1.676  1.00  0.00     0.135 C 
ATOM     10  C   UNL     1       2.746  -1.538  -0.494  1.00  0.00     0.030 C 
ATOM     11  N   UNL     1       2.496  -0.126   1.592  1.00  0.00    -0.294 NA
ATOM     12  C   UNL     1      -1.088  -1.369  -1.594  1.00  0.00     0.173 C 
ATOM     13  C   UNL     1       3.128  -0.233   0.247  1.00  0.00     0.104 C 
ATOM     14  C   UNL     1       3.135  -0.977   2.627  1.00  0.00     0.090 C 
ATOM     15  C   UNL     1       4.621  -0.147   0.376  1.00  0.00     0.037 A 
ATOM     16  C   UNL     1       4.583  -0.529   2.880  1.00  0.00     0.053 C 
ATOM     17  C   UNL     1       5.280  -0.359   1.570  1.00  0.00    -0.016 A 
ATOM     18  N   UNL     1       5.497   0.075  -0.633  1.00  0.00    -0.357 N 
ATOM     19  C   UNL     1       6.622  -0.234   1.288  1.00  0.00     0.003 A 
ATOM     20  C   UNL     1       6.717   0.022  -0.060  1.00  0.00     0.050 A 
ATOM     21  H   UNL     1       5.278   0.243  -1.640  1.00  0.00     0.166 HD
ATOM     22  C   UNL     1       7.750  -0.329   2.102  1.00  0.00     0.014 A 
ATOM     23  C   UNL     1       7.951   0.199  -0.683  1.00  0.00     0.073 A 
ATOM     24  C   UNL     1       9.012  -0.171   1.496  1.00  0.00     0.047 A 
ATOM     25  C   UNL     1       9.121   0.093   0.102  1.00  0.00     0.120 A 
BRANCH   9  26
ATOM     26  C   UNL     1       0.822   0.299  -1.947  1.00  0.00     0.311 C 
ATOM     27  O   UNL     1       0.261   1.251  -1.337  1.00  0.00    -0.252 OA
BRANCH  26  28
ATOM     28  O   UNL     1       1.807   0.566  -2.907  1.00  0.00    -0.469 OA
ATOM     29  C   UNL     1       2.263   1.883  -3.205  1.00  0.00     0.282 C 
ENDBRANCH  26  28
ENDBRANCH   9  26
BRANCH  12  30
ATOM     30  O   UNL     1      -1.369  -2.717  -1.942  1.00  0.00    -0.377 OA
ATOM     31  C   UNL     1      -1.848  -2.811  -3.266  1.00  0.00     0.195 C 
ENDBRANCH  12  30
BRANCH  25  32
ATOM     32  O   UNL     1      10.362   0.250  -0.530  1.00  0.00    -0.497 OA
ATOM     33  C   UNL     1      11.623   0.092   0.118  1.00  0.00     0.278 C 
ENDBRANCH  25  32
ENDBRANCH   3   4
ENDBRANCH   1   3
BRANCH   1  34
ATOM     34  C   UNL     1      -2.910   2.448   0.216  1.00  0.00     0.094 C 
ATOM     35  C   UNL     1      -4.107   3.001   0.478  1.00  0.00     0.016 C 
BRANCH  35  36
ATOM     36  C   UNL     1      -5.380   2.254   0.406  1.00  0.00    -0.018 A 
ATOM     37  C   UNL     1      -6.469   2.798  -0.283  1.00  0.00     0.058 A 
ATOM     38  C   UNL     1      -5.511   1.001   1.023  1.00  0.00     0.058 A 
ATOM     39  C   UNL     1      -7.664   2.060  -0.433  1.00  0.00     0.165 A 
ATOM     40  C   UNL     1      -6.690   0.246   0.873  1.00  0.00     0.165 A 
ATOM     41  C   UNL     1      -7.752   0.766   0.118  1.00  0.00     0.203 A 
BRANCH  39  42
ATOM     42  O   UNL     1      -8.782   2.587  -1.102  1.00  0.00    -0.493 OA
ATOM     43  C   UNL     1      -8.851   3.895  -1.663  1.00  0.00     0.278 C 
ENDBRANCH  39  42
BRANCH  40  44
ATOM     44  O   UNL     1      -6.831  -1.035   1.433  1.00  0.00    -0.493 OA
ATOM     45  C   UNL     1      -5.806  -1.712   2.161  1.00  0.00     0.278 C 
ENDBRANCH  40  44
BRANCH  41  46
ATOM     46  O   UNL     1      -8.895  -0.028  -0.058  1.00  0.00    -0.490 OA
ATOM     47  C   UNL     1      -9.417  -0.363  -1.343  1.00  0.00     0.278 C 
ENDBRANCH  41  46
ENDBRANCH  35  36
ENDBRANCH   1  34
TORSDOF 11
