REMARK SMILES COc1ccc(C2CNC(=O)C2)cc1OC1CCCC1
REMARK SMILES IDX 3 1 14 2 13 3 6 4 5 5 4 6 2 7 1 8 15 9 16 10 17 11 20 12
REMARK SMILES IDX 18 13 19 14 7 15 8 16 12 17 9 18 10 19 11 21
REMARK H PARENT 9 20
REMARK Flexibility Score: inf
ROOT
ATOM      1  C   UNL     1       0.251  -1.579   0.292  1.00  0.00     0.160 A 
ATOM      2  C   UNL     1       0.231  -0.200   0.619  1.00  0.00     0.161 A 
ATOM      3  C   UNL     1      -0.995   0.477   0.663  1.00  0.00     0.054 A 
ATOM      4  C   UNL     1      -2.206  -0.163   0.342  1.00  0.00    -0.039 A 
ATOM      5  C   UNL     1      -2.176  -1.540   0.066  1.00  0.00     0.008 A 
ATOM      6  C   UNL     1      -0.967  -2.233   0.024  1.00  0.00     0.051 A 
ENDROOT
BRANCH   1   7
ATOM      7  O   UNL     1       1.466  -2.279   0.256  1.00  0.00    -0.493 OA
ATOM      8  C   UNL     1       1.606  -3.657  -0.076  1.00  0.00     0.278 C 
ENDBRANCH   1   7
BRANCH   2   9
ATOM      9  O   UNL     1       1.376   0.563   0.922  1.00  0.00    -0.487 OA
BRANCH   9  10
ATOM     10  C   UNL     1       2.746   0.169   0.809  1.00  0.00     0.173 C 
ATOM     11  C   UNL     1       3.639   1.271   1.379  1.00  0.00     0.045 C 
ATOM     12  C   UNL     1       3.164  -0.004  -0.659  1.00  0.00     0.045 C 
ATOM     13  C   UNL     1       4.814   1.393   0.427  1.00  0.00     0.004 C 
ATOM     14  C   UNL     1       4.258   1.018  -0.932  1.00  0.00     0.004 C 
ENDBRANCH   9  10
ENDBRANCH   2   9
BRANCH   4  15
ATOM     15  C   UNL     1      -3.536   0.578   0.461  1.00  0.00     0.048 C 
ATOM     16  C   UNL     1      -3.455   2.095   0.145  1.00  0.00     0.124 C 
ATOM     17  C   UNL     1      -4.654   0.037  -0.462  1.00  0.00     0.110 C 
ATOM     18  N   UNL     1      -4.736   2.440  -0.437  1.00  0.00    -0.355 N 
ATOM     19  C   UNL     1      -5.406   1.258  -0.810  1.00  0.00     0.220 C 
ATOM     20  H   UNL     1      -5.030   3.404  -0.710  1.00  0.00     0.163 HD
ATOM     21  O   UNL     1      -6.509   1.260  -1.418  1.00  0.00    -0.275 OA
ENDBRANCH   4  15
TORSDOF 4
