REMARK SMILES COc1cc(CCN)c(OC)cc1Br
REMARK SMILES IDX 6 1 5 2 9 3 12 4 13 5 4 6 14 7 3 8 10 9 11 10 2 11 1 12 7 13
REMARK SMILES IDX 8 14
REMARK H PARENT 8 15 8 16
REMARK Flexibility Score: inf
ROOT
ATOM      1  C   UNL     1      -1.598   0.098   0.965  1.00  0.00     0.054 C 
ENDROOT
BRANCH   1   2
ATOM      2  C   UNL     1      -0.198  -0.148   0.458  1.00  0.00    -0.001 A 
ATOM      3  C   UNL     1       0.107  -1.307  -0.283  1.00  0.00     0.123 A 
ATOM      4  C   UNL     1       1.417  -1.490  -0.764  1.00  0.00     0.066 A 
ATOM      5  C   UNL     1       2.405  -0.531  -0.525  1.00  0.00     0.063 A 
ATOM      6  C   UNL     1       0.796   0.819   0.681  1.00  0.00     0.055 A 
ATOM      7  Br  UNL     1       4.171  -0.825  -1.202  1.00  0.00    -0.047 Br
ATOM      8  C   UNL     1       2.104   0.632   0.196  1.00  0.00     0.133 A 
BRANCH   3   9
ATOM      9  O   UNL     1      -0.907  -2.249  -0.524  1.00  0.00    -0.496 OA
ATOM     10  C   UNL     1      -0.735  -3.453  -1.264  1.00  0.00     0.278 C 
ENDBRANCH   3   9
BRANCH   8  11
ATOM     11  O   UNL     1       3.121   1.576   0.409  1.00  0.00    -0.496 OA
ATOM     12  C   UNL     1       2.953   2.798   1.120  1.00  0.00     0.278 C 
ENDBRANCH   8  11
ENDBRANCH   1   2
BRANCH   1  13
ATOM     13  C   UNL     1      -2.448   0.783  -0.108  1.00  0.00     0.082 C 
BRANCH  13  14
ATOM     14  N   UNL     1      -3.804   1.000   0.388  1.00  0.00    -0.330 NA
ATOM     15  H   UNL     1      -3.767   1.740   1.127  1.00  0.00     0.118 HD
ATOM     16  H   UNL     1      -4.370   1.395  -0.398  1.00  0.00     0.118 HD
ENDBRANCH  13  14
ENDBRANCH   1  13
TORSDOF 5
