REMARK SMILES CN(C)C(=O)Oc1cc(OC(=O)N(C)C)cc(C(O)CNC(C)(C)C)c1
REMARK SMILES IDX 18 1 17 2 7 3 26 4 8 5 9 6 16 7 6 8 4 9 1 10 2 11 3 12 5 13
REMARK SMILES IDX 10 14 11 15 12 16 13 17 14 18 15 19 19 20 20 22 21 23 22 25
REMARK SMILES IDX 23 26 24 27 25 28
REMARK H PARENT 19 21 21 24
REMARK Flexibility Score: inf
ROOT
ATOM      1  C   UNL     1      -1.664  -0.455   0.899  1.00  0.00     0.158 C 
ENDROOT
BRANCH   1   2
ATOM      2  C   UNL     1      -0.152  -0.392   0.828  1.00  0.00    -0.011 A 
ATOM      3  C   UNL     1       1.915   0.906   0.826  1.00  0.00     0.136 A 
ATOM      4  C   UNL     1       0.513   0.845   0.889  1.00  0.00     0.054 A 
ATOM      5  C   UNL     1       2.650  -0.280   0.734  1.00  0.00     0.094 A 
ATOM      6  C   UNL     1       2.007  -1.519   0.657  1.00  0.00     0.136 A 
ATOM      7  C   UNL     1       0.602  -1.572   0.715  1.00  0.00     0.054 A 
BRANCH   3   8
ATOM      8  O   UNL     1       2.609   2.123   0.895  1.00  0.00    -0.410 OA
BRANCH   8   9
ATOM      9  C   UNL     1       2.130   3.350   0.415  1.00  0.00     0.414 C 
ATOM     10  C   UNL     1       3.898   4.518   1.750  1.00  0.00     0.150 C 
ATOM     11  N   UNL     1       2.754   4.574   0.837  1.00  0.00    -0.314 N 
ATOM     12  C   UNL     1       2.233   5.859   0.364  1.00  0.00     0.150 C 
ATOM     13  O   UNL     1       1.188   3.381  -0.426  1.00  0.00    -0.224 OA
ENDBRANCH   8   9
ENDBRANCH   3   8
BRANCH   6  14
ATOM     14  O   UNL     1       2.799  -2.675   0.570  1.00  0.00    -0.410 OA
BRANCH  14  15
ATOM     15  C   UNL     1       2.408  -3.892  -0.009  1.00  0.00     0.414 C 
ATOM     16  O   UNL     1       1.422  -3.940  -0.795  1.00  0.00    -0.224 OA
ATOM     17  N   UNL     1       3.176  -5.079   0.252  1.00  0.00    -0.314 N 
ATOM     18  C   UNL     1       2.716  -6.372  -0.263  1.00  0.00     0.150 C 
ATOM     19  C   UNL     1       4.410  -4.978   1.033  1.00  0.00     0.150 C 
ENDBRANCH  14  15
ENDBRANCH   6  14
ENDBRANCH   1   2
BRANCH   1  20
ATOM     20  O   UNL     1      -2.113   0.188   2.065  1.00  0.00    -0.387 OA
ATOM     21  H   UNL     1      -1.905  -0.421   2.822  1.00  0.00     0.211 HD
ENDBRANCH   1  20
BRANCH   1  22
ATOM     22  C   UNL     1      -2.292   0.214  -0.336  1.00  0.00     0.118 C 
BRANCH  22  23
ATOM     23  N   UNL     1      -3.742  -0.052  -0.379  1.00  0.00    -0.309 NA
ATOM     24  H   UNL     1      -4.169   0.326   0.500  1.00  0.00     0.123 HD
BRANCH  23  25
ATOM     25  C   UNL     1      -4.461   0.533  -1.539  1.00  0.00     0.010 C 
ATOM     26  C   UNL     1      -3.877   0.029  -2.877  1.00  0.00     0.027 C 
ATOM     27  C   UNL     1      -5.929   0.067  -1.459  1.00  0.00     0.027 C 
ATOM     28  C   UNL     1      -4.437   2.078  -1.504  1.00  0.00     0.027 C 
ENDBRANCH  23  25
ENDBRANCH  22  23
ENDBRANCH   1  22
TORSDOF 9
