REMARK SMILES O=C(CCCCCCC(=O)Nc1ccccc1)NO
REMARK SMILES IDX 5 1 4 2 3 3 2 4 18 5 1 7 19 8 6 10 7 11 8 12 9 13 10 14
REMARK SMILES IDX 11 15 12 17 13 18 17 19 14 20 16 21 15 22
REMARK H PARENT 18 6 19 9 11 16
REMARK Flexibility Score: inf
ROOT
ATOM      1  C   UNL     1       2.719  -1.156  -1.298  1.00  0.00     0.001 C 
ENDROOT
BRANCH   1   2
ATOM      2  C   UNL     1       2.873  -0.520   0.095  1.00  0.00     0.010 C 
BRANCH   2   3
ATOM      3  C   UNL     1       3.617   0.820   0.060  1.00  0.00     0.102 C 
BRANCH   3   4
ATOM      4  C   UNL     1       3.847   1.327   1.452  1.00  0.00     0.243 C 
ATOM      5  N   UNL     1       4.953   0.848   2.220  1.00  0.00    -0.238 N 
ATOM      6  H   UNL     1       5.626   0.166   1.802  1.00  0.00     0.198 HD
ATOM      7  O   UNL     1       3.038   2.149   1.959  1.00  0.00    -0.273 OA
BRANCH   5   8
ATOM      8  O   UNL     1       5.151   1.280   3.488  1.00  0.00    -0.289 OA
ATOM      9  H   UNL     1       4.665   0.630   4.056  1.00  0.00     0.246 HD
ENDBRANCH   5   8
ENDBRANCH   3   4
ENDBRANCH   2   3
ENDBRANCH   1   2
BRANCH   1  10
ATOM     10  C   UNL     1       1.907  -0.323  -2.312  1.00  0.00     0.001 C 
BRANCH  10  11
ATOM     11  C   UNL     1       0.496   0.078  -1.846  1.00  0.00     0.010 C 
BRANCH  11  12
ATOM     12  C   UNL     1      -0.407  -1.131  -1.570  1.00  0.00     0.100 C 
BRANCH  12  13
ATOM     13  C   UNL     1      -1.790  -0.678  -1.211  1.00  0.00     0.224 C 
ATOM     14  O   UNL     1      -2.651  -0.542  -2.121  1.00  0.00    -0.275 OA
ATOM     15  N   UNL     1      -2.094  -0.317   0.146  1.00  0.00    -0.326 N 
ATOM     16  H   UNL     1      -1.291  -0.172   0.800  1.00  0.00     0.169 HD
BRANCH  15  17
ATOM     17  C   UNL     1      -3.419  -0.041   0.632  1.00  0.00     0.041 A 
ATOM     18  C   UNL     1      -3.591   0.886   1.671  1.00  0.00     0.026 A 
ATOM     19  C   UNL     1      -4.543  -0.727   0.133  1.00  0.00     0.026 A 
ATOM     20  C   UNL     1      -4.866   1.153   2.179  1.00  0.00     0.002 A 
ATOM     21  C   UNL     1      -5.817  -0.458   0.644  1.00  0.00     0.002 A 
ATOM     22  C   UNL     1      -5.979   0.485   1.663  1.00  0.00     0.000 A 
ENDBRANCH  15  17
ENDBRANCH  12  13
ENDBRANCH  11  12
ENDBRANCH  10  11
ENDBRANCH   1  10
TORSDOF 9
