REMARK SMILES CO[C@@H]1[C@H](OC(=O)/C=C/C=C/C=C/C=C/C(=O)O)CC[C@]2(CO2)[C@H]1[C@@]1(C)O[C@@H]1CC=C(C)C
REMARK SMILES IDX 8 1 9 2 6 3 7 4 5 5 4 6 3 7 24 8 19 9 21 10 20 11 22 12
REMARK SMILES IDX 23 13 2 14 1 15 25 16 26 17 27 18 28 19 29 20 30 21 31 22
REMARK SMILES IDX 32 23 33 24 10 25 11 26 12 27 13 28 14 29 15 30 16 31 17 32
REMARK SMILES IDX 18 33
REMARK H PARENT 18 34
REMARK Flexibility Score: inf
ROOT
ATOM      1  C   UNL     1       2.907  -0.869   0.407  1.00  0.00     0.093 C 
ATOM      2  C   UNL     1       4.191  -0.804   0.775  1.00  0.00     0.007 C 
ENDROOT
BRANCH   1   3
ATOM      3  C   UNL     1       1.838  -1.257   1.340  1.00  0.00     0.331 C 
ATOM      4  O   UNL     1       2.112  -1.666   2.501  1.00  0.00    -0.247 OA
BRANCH   3   5
ATOM      5  O   UNL     1       0.508  -1.152   0.918  1.00  0.00    -0.456 OA
BRANCH   5   6
ATOM      6  C   UNL     1      -0.614  -1.487   1.739  1.00  0.00     0.206 C 
ATOM      7  C   UNL     1      -1.889  -0.796   1.189  1.00  0.00     0.167 C 
ATOM      8  C   UNL     1      -2.243  -1.333  -0.227  1.00  0.00     0.091 C 
ATOM      9  C   UNL     1      -0.801  -3.014   1.813  1.00  0.00     0.051 C 
ATOM     10  C   UNL     1      -2.273  -2.887  -0.224  1.00  0.00     0.100 C 
ATOM     11  C   UNL     1      -1.105  -3.622   0.443  1.00  0.00     0.042 C 
ATOM     12  C   UNL     1      -3.049  -3.649  -1.233  1.00  0.00     0.197 C 
ATOM     13  O   UNL     1      -3.524  -3.450   0.086  1.00  0.00    -0.369 OA
BRANCH   7  14
ATOM     14  O   UNL     1      -1.670   0.604   1.096  1.00  0.00    -0.377 OA
ATOM     15  C   UNL     1      -1.991   1.255   2.308  1.00  0.00     0.195 C 
ENDBRANCH   7  14
BRANCH   8  16
ATOM     16  C   UNL     1      -3.456  -0.610  -0.910  1.00  0.00     0.101 C 
ATOM     17  C   UNL     1      -3.319  -0.249  -2.398  1.00  0.00     0.046 C 
ATOM     18  O   UNL     1      -4.716  -1.182  -0.619  1.00  0.00    -0.365 OA
ATOM     19  C   UNL     1      -4.487   0.096  -0.074  1.00  0.00     0.155 C 
BRANCH  19  20
ATOM     20  C   UNL     1      -5.366   1.165  -0.745  1.00  0.00     0.062 C 
BRANCH  20  21
ATOM     21  C   UNL     1      -6.358   1.753   0.230  1.00  0.00    -0.026 C 
ATOM     22  C   UNL     1      -7.199   2.760  -0.092  1.00  0.00    -0.080 C 
ATOM     23  C   UNL     1      -7.197   3.381  -1.470  1.00  0.00     0.039 C 
ATOM     24  C   UNL     1      -8.157   3.268   0.954  1.00  0.00     0.039 C 
ENDBRANCH  20  21
ENDBRANCH  19  20
ENDBRANCH   8  16
ENDBRANCH   5   6
ENDBRANCH   3   5
ENDBRANCH   1   3
BRANCH   2  25
ATOM     25  C   UNL     1       5.230  -0.385  -0.180  1.00  0.00     0.000 C 
ATOM     26  C   UNL     1       6.493  -0.210   0.213  1.00  0.00     0.000 C 
BRANCH  26  27
ATOM     27  C   UNL     1       7.530   0.222  -0.738  1.00  0.00     0.000 C 
ATOM     28  C   UNL     1       8.768   0.503  -0.323  1.00  0.00     0.000 C 
BRANCH  28  29
ATOM     29  C   UNL     1       9.809   0.931  -1.271  1.00  0.00     0.007 C 
ATOM     30  C   UNL     1      11.024   1.284  -0.839  1.00  0.00     0.093 C 
BRANCH  30  31
ATOM     31  C   UNL     1      12.096   1.708  -1.755  1.00  0.00     0.328 C 
ATOM     32  O   UNL     1      11.918   1.718  -3.004  1.00  0.00    -0.247 OA
BRANCH  31  33
ATOM     33  O   UNL     1      13.323   2.098  -1.229  1.00  0.00    -0.478 OA
ATOM     34  H   UNL     1      14.083   2.384  -1.838  1.00  0.00     0.297 HD
ENDBRANCH  31  33
ENDBRANCH  30  31
ENDBRANCH  28  29
ENDBRANCH  26  27
ENDBRANCH   2  25
TORSDOF 12
