REMARK SMILES NS(=O)(=O)c1cc(C(=O)O)cc(N2CCCC2)c1Oc1ccccc1
REMARK SMILES IDX 5 1 6 2 7 3 11 4 12 5 18 6 2 7 3 8 4 9 1 10 19 13 20 14
REMARK SMILES IDX 21 15 25 16 22 17 24 18 23 19 8 20 9 21 10 22 13 24 14 25
REMARK SMILES IDX 17 26 15 27 16 28
REMARK H PARENT 1 11 1 12 10 23
REMARK Flexibility Score: inf
ROOT
ATOM      1  C   UNL     1      -0.509  -1.999  -0.077  1.00  0.00     0.127 A 
ATOM      2  C   UNL     1      -1.610  -2.466   0.647  1.00  0.00     0.041 A 
ATOM      3  C   UNL     1      -2.613  -1.590   1.074  1.00  0.00     0.063 A 
ATOM      4  C   UNL     1      -2.506  -0.226   0.763  1.00  0.00     0.045 A 
ATOM      5  C   UNL     1      -1.399   0.283   0.055  1.00  0.00     0.082 A 
ATOM      6  C   UNL     1      -0.380  -0.618  -0.348  1.00  0.00     0.170 A 
ENDROOT
BRANCH   1   7
ATOM      7  S   UNL     1       0.675  -3.174  -0.671  1.00  0.00     0.241 S 
ATOM      8  O   UNL     1       0.018  -4.516  -0.835  1.00  0.00    -0.207 OA
ATOM      9  O   UNL     1       1.206  -2.742  -2.010  1.00  0.00    -0.207 OA
BRANCH   7  10
ATOM     10  N   UNL     1       1.979  -3.311   0.454  1.00  0.00    -0.225 NA
ATOM     11  H   UNL     1       1.572  -3.646   1.355  1.00  0.00     0.137 HD
ATOM     12  H   UNL     1       2.607  -4.069   0.105  1.00  0.00     0.137 HD
ENDBRANCH   7  10
ENDBRANCH   1   7
BRANCH   6  13
ATOM     13  O   UNL     1       0.740  -0.153  -1.044  1.00  0.00    -0.454 OA
BRANCH  13  14
ATOM     14  C   UNL     1       2.029  -0.074  -0.494  1.00  0.00     0.127 A 
ATOM     15  C   UNL     1       2.262  -0.208   0.889  1.00  0.00     0.047 A 
ATOM     16  C   UNL     1       3.109   0.169  -1.350  1.00  0.00     0.047 A 
ATOM     17  C   UNL     1       3.563  -0.116   1.394  1.00  0.00     0.004 A 
ATOM     18  C   UNL     1       4.409   0.261  -0.842  1.00  0.00     0.004 A 
ATOM     19  C   UNL     1       4.635   0.117   0.530  1.00  0.00     0.000 A 
ENDBRANCH  13  14
ENDBRANCH   6  13
BRANCH   3  20
ATOM     20  C   UNL     1      -3.776  -2.103   1.834  1.00  0.00     0.335 C 
ATOM     21  O   UNL     1      -4.687  -1.319   2.216  1.00  0.00    -0.246 OA
BRANCH  20  22
ATOM     22  O   UNL     1      -3.876  -3.459   2.135  1.00  0.00    -0.478 OA
ATOM     23  H   UNL     1      -4.667  -3.820   2.655  1.00  0.00     0.297 HD
ENDBRANCH  20  22
ENDBRANCH   3  20
BRANCH   5  24
ATOM     24  N   UNL     1      -1.337   1.702  -0.249  1.00  0.00    -0.368 N 
ATOM     25  C   UNL     1      -0.112   2.464  -0.457  1.00  0.00     0.117 C 
ATOM     26  C   UNL     1      -2.513   2.565  -0.293  1.00  0.00     0.117 C 
ATOM     27  C   UNL     1      -0.526   3.929  -0.453  1.00  0.00     0.023 C 
ATOM     28  C   UNL     1      -2.016   3.924  -0.760  1.00  0.00     0.023 C 
ENDBRANCH   5  24
TORSDOF 7
