REMARK SMILES CCCCC[C@H](O)/C=C/[C@H]1C(=O)C[C@H](O)[C@@H]1C/C=C\CCCC(=O)O
REMARK SMILES IDX 10 1 11 2 12 3 13 4 14 5 16 6 9 7 8 8 6 9 7 10 5 12 4 13
REMARK SMILES IDX 3 14 2 15 1 16 17 17 18 18 19 19 20 20 21 21 22 22 23 23
REMARK SMILES IDX 24 24 25 25 15 27
REMARK H PARENT 7 11 25 26 15 28
REMARK Flexibility Score: inf
ROOT
ATOM      1  C   UNL     1       0.021  -2.433  -0.613  1.00  0.00     0.084 C 
ATOM      2  C   UNL     1       0.664  -3.431   0.286  1.00  0.00     0.142 C 
ATOM      3  O   UNL     1       1.407  -4.316  -0.116  1.00  0.00    -0.299 OA
ATOM      4  C   UNL     1       0.290  -3.278   1.713  1.00  0.00     0.108 C 
ATOM      5  C   UNL     1      -0.844  -2.248   1.690  1.00  0.00     0.126 C 
ATOM      6  C   UNL     1      -0.665  -1.459   0.365  1.00  0.00     0.036 C 
ENDROOT
BRANCH   1   7
ATOM      7  C   UNL     1       1.013  -1.743  -1.525  1.00  0.00    -0.017 C 
ATOM      8  C   UNL     1       2.133  -1.161  -1.065  1.00  0.00     0.001 C 
BRANCH   8   9
ATOM      9  C   UNL     1       3.087  -0.450  -2.001  1.00  0.00     0.137 C 
BRANCH   9  10
ATOM     10  O   UNL     1       2.453   0.604  -2.684  1.00  0.00    -0.389 OA
ATOM     11  H   UNL     1       1.956   1.144  -2.016  1.00  0.00     0.211 HD
ENDBRANCH   9  10
BRANCH   9  12
ATOM     12  C   UNL     1       4.358   0.042  -1.278  1.00  0.00     0.036 C 
BRANCH  12  13
ATOM     13  C   UNL     1       4.100   1.199  -0.293  1.00  0.00     0.003 C 
BRANCH  13  14
ATOM     14  C   UNL     1       5.309   1.478   0.615  1.00  0.00    -0.000 C 
BRANCH  14  15
ATOM     15  C   UNL     1       6.466   2.152  -0.137  1.00  0.00    -0.003 C 
ATOM     16  C   UNL     1       7.641   2.426   0.795  1.00  0.00     0.004 C 
ENDBRANCH  14  15
ENDBRANCH  13  14
ENDBRANCH  12  13
ENDBRANCH   9  12
ENDBRANCH   8   9
ENDBRANCH   1   7
BRANCH   6  17
ATOM     17  C   UNL     1      -1.968  -0.878  -0.223  1.00  0.00     0.034 C 
BRANCH  17  18
ATOM     18  C   UNL     1      -2.549   0.195   0.668  1.00  0.00    -0.031 C 
ATOM     19  C   UNL     1      -3.853   0.524   0.685  1.00  0.00    -0.031 C 
BRANCH  19  20
ATOM     20  C   UNL     1      -4.903  -0.205  -0.122  1.00  0.00     0.027 C 
BRANCH  20  21
ATOM     21  C   UNL     1      -6.297   0.416   0.044  1.00  0.00     0.016 C 
BRANCH  21  22
ATOM     22  C   UNL     1      -6.412   1.777  -0.661  1.00  0.00     0.123 C 
BRANCH  22  23
ATOM     23  C   UNL     1      -7.799   2.319  -0.521  1.00  0.00     0.303 C 
ATOM     24  O   UNL     1      -8.672   2.051  -1.389  1.00  0.00    -0.252 OA
BRANCH  23  25
ATOM     25  O   UNL     1      -8.134   3.087   0.592  1.00  0.00    -0.481 OA
ATOM     26  H   UNL     1      -9.072   3.452   0.710  1.00  0.00     0.296 HD
ENDBRANCH  23  25
ENDBRANCH  22  23
ENDBRANCH  21  22
ENDBRANCH  20  21
ENDBRANCH  19  20
ENDBRANCH  17  18
ENDBRANCH   6  17
BRANCH   5  27
ATOM     27  O   UNL     1      -2.075  -2.927   1.725  1.00  0.00    -0.392 OA
ATOM     28  H   UNL     1      -2.751  -2.292   2.075  1.00  0.00     0.210 HD
ENDBRANCH   5  27
TORSDOF 15
