REMARK SMILES O=C(O)c1ccccc1Nc1cccc(C(F)(F)F)c1
REMARK SMILES IDX 4 1 5 2 6 3 7 4 8 5 9 6 2 7 1 8 3 9 10 11 11 13 20 14 12 15
REMARK SMILES IDX 15 16 13 17 14 18 16 19 17 20 18 21 19 22
REMARK H PARENT 3 10 10 12
REMARK Flexibility Score: inf
ROOT
ATOM      1  C   UNL     1      -2.699  -0.932  -0.076  1.00  0.00     0.083 A 
ATOM      2  C   UNL     1      -3.966  -0.479   0.343  1.00  0.00     0.018 A 
ATOM      3  C   UNL     1      -4.083   0.540   1.290  1.00  0.00     0.001 A 
ATOM      4  C   UNL     1      -2.940   1.119   1.839  1.00  0.00     0.002 A 
ATOM      5  C   UNL     1      -1.677   0.676   1.448  1.00  0.00     0.027 A 
ATOM      6  C   UNL     1      -1.539  -0.344   0.490  1.00  0.00     0.053 A 
ENDROOT
BRANCH   1   7
ATOM      7  C   UNL     1      -2.620  -1.979  -1.124  1.00  0.00     0.337 C 
ATOM      8  O   UNL     1      -3.608  -2.732  -1.341  1.00  0.00    -0.246 OA
BRANCH   7   9
ATOM      9  O   UNL     1      -1.475  -2.122  -1.904  1.00  0.00    -0.478 OA
ATOM     10  H   UNL     1      -1.423  -2.829  -2.627  1.00  0.00     0.297 HD
ENDBRANCH   7   9
ENDBRANCH   1   7
BRANCH   6  11
ATOM     11  N   UNL     1      -0.228  -0.843   0.178  1.00  0.00    -0.355 N 
ATOM     12  H   UNL     1      -0.080  -1.877   0.218  1.00  0.00     0.167 HD
BRANCH  11  13
ATOM     13  C   UNL     1       0.903  -0.001  -0.110  1.00  0.00     0.039 A 
ATOM     14  C   UNL     1       2.201  -0.510   0.050  1.00  0.00     0.039 A 
ATOM     15  C   UNL     1       0.735   1.311  -0.587  1.00  0.00     0.026 A 
ATOM     16  C   UNL     1       3.326   0.278  -0.252  1.00  0.00     0.058 A 
ATOM     17  C   UNL     1       1.847   2.108  -0.863  1.00  0.00     0.003 A 
ATOM     18  C   UNL     1       3.136   1.601  -0.685  1.00  0.00     0.013 A 
BRANCH  16  19
ATOM     19  C   UNL     1       4.717  -0.258  -0.020  1.00  0.00     0.416 C 
ATOM     20  F   UNL     1       5.091  -0.002   1.285  1.00  0.00    -0.166 F 
ATOM     21  F   UNL     1       5.623   0.343  -0.876  1.00  0.00    -0.166 F 
ATOM     22  F   UNL     1       4.755  -1.625  -0.240  1.00  0.00    -0.166 F 
ENDBRANCH  16  19
ENDBRANCH  11  13
ENDBRANCH   6  11
TORSDOF 5
