REMARK SMILES C[C@H](CCC(=O)NCC(=O)[O-])[C@H]1CC[C@H]2[C@@H]3[C@H](O)C[C@@H]4C[C@H](O)CC[C@]4(C)[C@H]3C[C@H](O)[C@]12C
REMARK SMILES IDX 3 1 2 2 1 3 12 4 13 5 32 6 14 7 15 8 30 9 33 10 16 11 29 12
REMARK SMILES IDX 17 13 28 14 19 15 26 16 20 17 25 18 27 19 21 20 24 21 22 22
REMARK SMILES IDX 31 23 18 25 23 27 4 29 5 30 6 31 7 32 8 34 9 35 11 36 10 37
REMARK H PARENT 31 24 18 26 23 28 7 33
REMARK Flexibility Score: inf
ROOT
ATOM      1  C   UNL     1       3.707  -0.474   1.309  1.00  0.00     0.013 C 
ENDROOT
BRANCH   1   2
ATOM      2  C   UNL     1       3.361  -1.018  -0.102  1.00  0.00    -0.010 C 
ATOM      3  C   UNL     1       3.606  -2.545  -0.128  1.00  0.00     0.008 C 
BRANCH   2   4
ATOM      4  C   UNL     1       1.984  -0.509  -0.680  1.00  0.00     0.001 C 
ATOM      5  C   UNL     1       1.780  -0.877  -2.178  1.00  0.00     0.005 C 
ATOM      6  C   UNL     1       0.612  -0.837   0.010  1.00  0.00    -0.000 C 
ATOM      7  C   UNL     1       0.280  -1.125  -2.381  1.00  0.00     0.005 C 
ATOM      8  C   UNL     1      -0.358  -0.513  -1.146  1.00  0.00     0.004 C 
ATOM      9  C   UNL     1       0.200   0.068   1.212  1.00  0.00     0.121 C 
ATOM     10  C   UNL     1       0.559  -2.332   0.444  1.00  0.00     0.015 C 
ATOM     11  C   UNL     1      -1.836  -0.851  -0.837  1.00  0.00     0.025 C 
ATOM     12  C   UNL     1      -1.283  -0.176   1.610  1.00  0.00     0.037 C 
ATOM     13  C   UNL     1      -2.754  -0.572  -2.053  1.00  0.00     0.118 C 
ATOM     14  C   UNL     1      -2.287  -0.031   0.421  1.00  0.00     0.004 C 
ATOM     15  C   UNL     1      -4.243  -0.783  -1.707  1.00  0.00     0.036 C 
ATOM     16  C   UNL     1      -3.794  -0.327   0.806  1.00  0.00    -0.026 C 
ATOM     17  C   UNL     1      -4.711  -0.034  -0.435  1.00  0.00     0.000 C 
ATOM     18  C   UNL     1      -4.292   0.541   2.007  1.00  0.00     0.010 C 
ATOM     19  C   UNL     1      -3.986  -1.808   1.246  1.00  0.00     0.012 C 
ATOM     20  C   UNL     1      -4.890   1.482  -0.719  1.00  0.00     0.036 C 
ATOM     21  C   UNL     1      -4.416   2.032   1.684  1.00  0.00     0.032 C 
ATOM     22  C   UNL     1      -5.383   2.244   0.517  1.00  0.00     0.114 C 
BRANCH   9  23
ATOM     23  O   UNL     1       0.377   1.428   0.899  1.00  0.00    -0.393 OA
ATOM     24  H   UNL     1       0.398   1.925   1.758  1.00  0.00     0.210 HD
ENDBRANCH   9  23
BRANCH  13  25
ATOM     25  O   UNL     1      -2.537   0.721  -2.557  1.00  0.00    -0.393 OA
ATOM     26  H   UNL     1      -2.912   0.740  -3.476  1.00  0.00     0.210 HD
ENDBRANCH  13  25
BRANCH  22  27
ATOM     27  O   UNL     1      -5.463   3.616   0.233  1.00  0.00    -0.393 OA
ATOM     28  H   UNL     1      -6.269   3.744  -0.333  1.00  0.00     0.210 HD
ENDBRANCH  22  27
ENDBRANCH   2   4
ENDBRANCH   1   2
BRANCH   1  29
ATOM     29  C   UNL     1       3.860   1.054   1.406  1.00  0.00     0.100 C 
BRANCH  29  30
ATOM     30  C   UNL     1       4.962   1.569   0.528  1.00  0.00     0.220 C 
ATOM     31  O   UNL     1       4.674   2.144  -0.557  1.00  0.00    -0.275 OA
ATOM     32  N   UNL     1       6.332   1.377   0.903  1.00  0.00    -0.351 N 
ATOM     33  H   UNL     1       6.540   0.883   1.801  1.00  0.00     0.163 HD
BRANCH  32  34
ATOM     34  C   UNL     1       7.426   1.863   0.065  1.00  0.00     0.168 C 
BRANCH  34  35
ATOM     35  C   UNL     1       8.749   1.548   0.689  1.00  0.00     0.061 C 
ATOM     36  O   UNL     1       9.422   0.382   0.344  1.00  0.00    -0.548 OA
ATOM     37  O   UNL     1       9.239   2.318   1.556  1.00  0.00    -0.548 OA
ENDBRANCH  34  35
ENDBRANCH  32  34
ENDBRANCH  29  30
ENDBRANCH   1  29
TORSDOF 9
