REMARK SMILES O=[N+]([O-])c1cccc2c[nH]nc12
REMARK SMILES IDX 4 1 5 2 6 3 7 4 8 5 9 6 10 7 11 8 12 9 2 11 3 12 1 13
REMARK H PARENT 10 10
REMARK Flexibility Score: inf
ROOT
ATOM      1  C   UNL     1      -1.205  -0.435  -0.057  1.00  0.00     0.297 A 
ATOM      2  C   UNL     1      -1.686   0.886  -0.230  1.00  0.00     0.088 A 
ATOM      3  C   UNL     1      -0.791   1.968  -0.394  1.00  0.00     0.008 A 
ATOM      4  C   UNL     1       0.598   1.753  -0.388  1.00  0.00     0.012 A 
ATOM      5  C   UNL     1       1.045   0.448  -0.217  1.00  0.00     0.027 A 
ATOM      6  C   UNL     1       2.309  -0.087  -0.165  1.00  0.00     0.114 A 
ATOM      7  N   UNL     1       2.174  -1.419   0.020  1.00  0.00    -0.284 N 
ATOM      8  N   UNL     1       0.888  -1.748   0.087  1.00  0.00    -0.168 NA
ATOM      9  C   UNL     1       0.187  -0.608  -0.057  1.00  0.00     0.169 A 
ATOM     10  H   UNL     1       2.957  -2.105   0.101  1.00  0.00     0.189 HD
ENDROOT
BRANCH   1  11
ATOM     11  N   UNL     1      -2.111  -1.542   0.110  1.00  0.00     0.065 N 
ATOM     12  O   UNL     1      -1.636  -2.823   0.277  1.00  0.00    -0.258 OA
ATOM     13  O   UNL     1      -3.345  -1.356   0.105  1.00  0.00    -0.258 OA
ENDBRANCH   1  11
TORSDOF 1
