REMARK SMILES CSC[C@H]1O[C@@H](n2cnc3c(N)ncnc32)[C@H](O)[C@@H]1O
REMARK SMILES IDX 4 1 5 2 6 3 17 4 19 5 3 6 2 7 1 8 20 9 7 11 8 12 16 13 9 14
REMARK SMILES IDX 10 15 15 16 11 17 14 18 13 19 12 20 18 23
REMARK H PARENT 20 10 12 21 12 22 18 24
REMARK Flexibility Score: inf
ROOT
ATOM      1  C   UNL     1       2.041  -0.650   0.751  1.00  0.00     0.162 C 
ATOM      2  O   UNL     1       1.069   0.345   0.989  1.00  0.00    -0.348 OA
ATOM      3  C   UNL     1      -0.198  -0.281   1.019  1.00  0.00     0.253 C 
ATOM      4  C   UNL     1      -0.039  -1.776   0.714  1.00  0.00     0.195 C 
ATOM      5  C   UNL     1       1.352  -1.856   0.127  1.00  0.00     0.177 C 
ENDROOT
BRANCH   1   6
ATOM      6  C   UNL     1       3.148  -0.100  -0.154  1.00  0.00     0.104 C 
BRANCH   6   7
ATOM      7  S   UNL     1       4.019   1.273   0.677  1.00  0.00    -0.163 SA
ATOM      8  C   UNL     1       5.157   1.586  -0.709  1.00  0.00     0.085 C 
ENDBRANCH   6   7
ENDBRANCH   1   6
BRANCH   5   9
ATOM      9  O   UNL     1       2.011  -3.048   0.468  1.00  0.00    -0.387 OA
ATOM     10  H   UNL     1       1.599  -3.763  -0.082  1.00  0.00     0.211 HD
ENDBRANCH   5   9
BRANCH   3  11
ATOM     11  N   UNL     1      -1.079   0.350   0.032  1.00  0.00    -0.285 N 
ATOM     12  C   UNL     1      -0.762   0.784  -1.216  1.00  0.00     0.204 A 
ATOM     13  C   UNL     1      -2.406   0.511   0.098  1.00  0.00     0.167 A 
ATOM     14  N   UNL     1      -1.839   1.228  -1.923  1.00  0.00    -0.231 NA
ATOM     15  C   UNL     1      -2.856   1.042  -1.061  1.00  0.00     0.150 A 
ATOM     16  N   UNL     1      -3.229   0.190   1.125  1.00  0.00    -0.216 NA
ATOM     17  C   UNL     1      -4.214   1.286  -1.230  1.00  0.00     0.155 A 
ATOM     18  C   UNL     1      -4.567   0.428   0.972  1.00  0.00     0.226 A 
ATOM     19  N   UNL     1      -5.048   0.970  -0.194  1.00  0.00    -0.217 NA
BRANCH  17  20
ATOM     20  N   UNL     1      -4.735   1.841  -2.438  1.00  0.00    -0.382 N 
ATOM     21  H   UNL     1      -4.104   2.083  -3.234  1.00  0.00     0.158 HD
ATOM     22  H   UNL     1      -5.760   2.011  -2.538  1.00  0.00     0.158 HD
ENDBRANCH  17  20
ENDBRANCH   3  11
BRANCH   4  23
ATOM     23  O   UNL     1      -0.172  -2.555   1.881  1.00  0.00    -0.386 OA
ATOM     24  H   UNL     1       0.487  -2.230   2.549  1.00  0.00     0.211 HD
ENDBRANCH   4  23
TORSDOF 6
