REMARK SMILES O=c1c(-c2ccc(O)cc2)coc2cc(O[C@@H]3O[C@H](CO)[C@@H](O)[C@H](O)[C@H]3O)ccc12
REMARK SMILES IDX 16 1 17 2 19 3 18 4 22 5 24 6 26 7 20 8 21 9 23 11 25 13
REMARK SMILES IDX 27 15 15 17 28 18 14 19 29 20 13 21 30 22 12 23 2 24 11 25
REMARK SMILES IDX 1 26 3 27 4 28 5 29 10 30 6 31 9 32 7 33 8 34
REMARK H PARENT 21 10 23 12 25 14 27 16 8 35
REMARK Flexibility Score: inf
ROOT
ATOM      1  O   UNL     1      -2.138   0.611  -0.765  1.00  0.00    -0.462 OA
ENDROOT
BRANCH   1   2
ATOM      2  C   UNL     1      -3.294  -0.089  -0.299  1.00  0.00     0.339 C 
ATOM      3  C   UNL     1      -5.538  -0.478  -0.812  1.00  0.00     0.179 C 
ATOM      4  O   UNL     1      -4.377   0.267  -1.140  1.00  0.00    -0.332 OA
ATOM      5  C   UNL     1      -6.031  -0.110   0.607  1.00  0.00     0.177 C 
ATOM      6  C   UNL     1      -4.904  -0.354   1.625  1.00  0.00     0.180 C 
ATOM      7  C   UNL     1      -3.606   0.327   1.155  1.00  0.00     0.214 C 
BRANCH   3   8
ATOM      8  C   UNL     1      -6.617  -0.203  -1.872  1.00  0.00     0.191 C 
BRANCH   8   9
ATOM      9  O   UNL     1      -6.977   1.153  -1.892  1.00  0.00    -0.394 OA
ATOM     10  H   UNL     1      -6.270   1.630  -2.401  1.00  0.00     0.210 HD
ENDBRANCH   8   9
ENDBRANCH   3   8
BRANCH   5  11
ATOM     11  O   UNL     1      -7.147  -0.897   0.938  1.00  0.00    -0.387 OA
ATOM     12  H   UNL     1      -7.628  -0.424   1.666  1.00  0.00     0.211 HD
ENDBRANCH   5  11
BRANCH   6  13
ATOM     13  O   UNL     1      -5.291   0.160   2.874  1.00  0.00    -0.387 OA
ATOM     14  H   UNL     1      -4.781  -0.339   3.563  1.00  0.00     0.211 HD
ENDBRANCH   6  13
BRANCH   7  15
ATOM     15  O   UNL     1      -2.545  -0.043   1.997  1.00  0.00    -0.384 OA
ATOM     16  H   UNL     1      -2.562   0.574   2.774  1.00  0.00     0.211 HD
ENDBRANCH   7  15
ENDBRANCH   1   2
BRANCH   1  17
ATOM     17  C   UNL     1      -0.795   0.263  -0.534  1.00  0.00     0.126 A 
ATOM     18  C   UNL     1      -0.406  -0.940   0.089  1.00  0.00     0.047 A 
ATOM     19  C   UNL     1       0.192   1.160  -0.959  1.00  0.00     0.094 A 
ATOM     20  C   UNL     1       0.947  -1.230   0.287  1.00  0.00     0.020 A 
ATOM     21  C   UNL     1       1.548   0.877  -0.764  1.00  0.00     0.141 A 
ATOM     22  C   UNL     1       1.935  -0.326  -0.138  1.00  0.00     0.066 A 
ATOM     23  O   UNL     1       2.465   1.748  -1.172  1.00  0.00    -0.463 OA
ATOM     24  C   UNL     1       3.307  -0.575   0.044  1.00  0.00     0.200 A 
ATOM     25  C   UNL     1       3.768   1.541  -1.020  1.00  0.00     0.208 A 
ATOM     26  O   UNL     1       3.691  -1.626   0.628  1.00  0.00    -0.288 OA
ATOM     27  C   UNL     1       4.247   0.370  -0.411  1.00  0.00     0.065 A 
BRANCH  27  28
ATOM     28  C   UNL     1       5.709   0.159  -0.260  1.00  0.00    -0.011 A 
ATOM     29  C   UNL     1       6.302  -1.057  -0.646  1.00  0.00     0.013 A 
ATOM     30  C   UNL     1       6.524   1.183   0.254  1.00  0.00     0.013 A 
ATOM     31  C   UNL     1       7.680  -1.246  -0.509  1.00  0.00     0.047 A 
ATOM     32  C   UNL     1       7.902   0.990   0.390  1.00  0.00     0.047 A 
ATOM     33  C   UNL     1       8.483  -0.226   0.009  1.00  0.00     0.115 A 
BRANCH  33  34
ATOM     34  O   UNL     1       9.855  -0.430   0.140  1.00  0.00    -0.508 OA
ATOM     35  H   UNL     1      10.464   0.290   0.512  1.00  0.00     0.293 HD
ENDBRANCH  33  34
ENDBRANCH  27  28
ENDBRANCH   1  17
TORSDOF 9
