REMARK SMILES Nc1ncnc2c1ncn2[C@@H]1O[C@@H]2COP(=O)(O)O[C@H]2[C@H]1O
REMARK SMILES IDX 11 1 12 2 13 3 14 4 15 5 16 6 17 7 19 8 20 9 21 10 10 11
REMARK SMILES IDX 2 12 7 13 3 14 8 15 6 16 4 17 9 18 5 19 1 20 22 23 18 25
REMARK H PARENT 1 21 1 22 22 24 18 26
REMARK Flexibility Score: inf
ROOT
ATOM      1  C   UNL     1       0.053  -0.821   0.749  1.00  0.00     0.253 C 
ATOM      2  O   UNL     1      -0.857  -1.568  -0.045  1.00  0.00    -0.347 OA
ATOM      3  C   UNL     1      -2.131  -1.044   0.233  1.00  0.00     0.180 C 
ATOM      4  C   UNL     1      -3.142  -1.246  -0.920  1.00  0.00     0.208 C 
ATOM      5  O   UNL     1      -3.967  -0.119  -1.191  1.00  0.00    -0.284 OA
ATOM      6  P   UNL     1      -4.438   0.655   0.267  1.00  0.00     0.472 P 
ATOM      7  O   UNL     1      -5.411  -0.224   1.020  1.00  0.00    -0.228 OA
ATOM      8  O   UNL     1      -3.059   0.941   1.240  1.00  0.00    -0.278 OA
ATOM      9  C   UNL     1      -1.956   0.430   0.528  1.00  0.00     0.195 C 
ATOM     10  C   UNL     1      -0.664   0.429   1.307  1.00  0.00     0.196 C 
ENDROOT
BRANCH   1  11
ATOM     11  N   UNL     1       1.201  -0.425  -0.069  1.00  0.00    -0.285 N 
ATOM     12  C   UNL     1       4.553   0.491  -0.539  1.00  0.00     0.155 A 
ATOM     13  C   UNL     1       3.201   0.222  -0.713  1.00  0.00     0.150 A 
ATOM     14  N   UNL     1       5.092   0.256   0.695  1.00  0.00    -0.217 NA
ATOM     15  N   UNL     1       2.426   0.394  -1.801  1.00  0.00    -0.231 NA
ATOM     16  C   UNL     1       2.470  -0.256   0.320  1.00  0.00     0.167 A 
ATOM     17  C   UNL     1       4.328  -0.226   1.729  1.00  0.00     0.226 A 
ATOM     18  C   UNL     1       1.201  -0.009  -1.363  1.00  0.00     0.204 A 
ATOM     19  N   UNL     1       2.998  -0.484   1.547  1.00  0.00    -0.216 NA
BRANCH  12  20
ATOM     20  N   UNL     1       5.362   1.002  -1.599  1.00  0.00    -0.382 N 
ATOM     21  H   UNL     1       4.956   1.186  -2.544  1.00  0.00     0.158 HD
ATOM     22  H   UNL     1       6.375   1.197  -1.439  1.00  0.00     0.158 HD
ENDBRANCH  12  20
ENDBRANCH   1  11
BRANCH  10  23
ATOM     23  O   UNL     1      -0.874   0.338   2.698  1.00  0.00    -0.386 OA
ATOM     24  H   UNL     1      -1.361  -0.505   2.888  1.00  0.00     0.211 HD
ENDBRANCH  10  23
BRANCH   6  25
ATOM     25  O   UNL     1      -5.178   2.131  -0.096  1.00  0.00    -0.302 OA
ATOM     26  H   UNL     1      -5.902   1.901  -0.732  1.00  0.00     0.223 HD
ENDBRANCH   6  25
TORSDOF 4
