REMARK SMILES Nc1nc(=O)c2[nH]cc(Cc3cccnc3)c2[nH]1
REMARK SMILES IDX 2 1 3 2 4 3 5 4 6 5 17 6 18 7 9 8 8 9 7 10 1 13 10 16 11 17
REMARK SMILES IDX 16 18 12 19 15 20 13 21 14 22
REMARK H PARENT 18 11 7 12 1 14 1 15
REMARK Flexibility Score: inf
ROOT
ATOM      1  C   UNL     1      -2.809   0.790  -1.095  1.00  0.00     0.201 A 
ATOM      2  N   UNL     1      -3.455  -0.392  -1.360  1.00  0.00    -0.173 NA
ATOM      3  C   UNL     1      -3.034  -1.571  -0.816  1.00  0.00     0.298 A 
ATOM      4  O   UNL     1      -3.636  -2.646  -1.074  1.00  0.00    -0.265 OA
ATOM      5  C   UNL     1      -1.928  -1.543   0.023  1.00  0.00     0.131 A 
ATOM      6  C   UNL     1      -1.301  -0.363   0.276  1.00  0.00     0.075 A 
ATOM      7  N   UNL     1      -1.717   0.808  -0.268  1.00  0.00    -0.324 N 
ATOM      8  C   UNL     1      -0.239  -0.629   1.116  1.00  0.00    -0.002 A 
ATOM      9  C   UNL     1      -0.275  -2.008   1.320  1.00  0.00     0.089 A 
ATOM     10  N   UNL     1      -1.317  -2.562   0.654  1.00  0.00    -0.355 N 
ATOM     11  H   UNL     1      -1.220   1.702  -0.059  1.00  0.00     0.170 HD
ATOM     12  H   UNL     1      -1.576  -3.573   0.624  1.00  0.00     0.166 HD
ENDROOT
BRANCH   1  13
ATOM     13  N   UNL     1      -3.281   2.000  -1.686  1.00  0.00    -0.369 N 
ATOM     14  H   UNL     1      -4.114   1.988  -2.316  1.00  0.00     0.159 HD
ATOM     15  H   UNL     1      -2.802   2.908  -1.497  1.00  0.00     0.159 HD
ENDBRANCH   1  13
BRANCH   8  16
ATOM     16  C   UNL     1       0.811   0.322   1.606  1.00  0.00     0.076 C 
BRANCH  16  17
ATOM     17  C   UNL     1       1.943   0.396   0.619  1.00  0.00    -0.025 A 
ATOM     18  C   UNL     1       2.963  -0.569   0.631  1.00  0.00     0.115 A 
ATOM     19  C   UNL     1       1.975   1.396  -0.364  1.00  0.00     0.007 A 
ATOM     20  N   UNL     1       3.966  -0.516  -0.286  1.00  0.00    -0.264 NA
ATOM     21  C   UNL     1       3.016   1.428  -1.294  1.00  0.00     0.020 A 
ATOM     22  C   UNL     1       4.014   0.454  -1.237  1.00  0.00     0.111 A 
ENDBRANCH  16  17
ENDBRANCH   8  16
TORSDOF 3
