REMARK SMILES C[C@]12CC[C@H]3C(=CCc4cc(O)ccc43)[C@@H]1CCC2=O
REMARK SMILES IDX 16 1 17 2 18 3 19 4 20 5 2 6 1 7 3 8 4 9 5 10 15 11 9 12
REMARK SMILES IDX 8 13 7 14 6 15 10 16 11 17 13 18 14 19 12 20
REMARK H PARENT 12 21
REMARK Flexibility Score: inf
ROOT
ATOM      1  C   UNL     1      -1.695  -1.018  -0.170  1.00  0.00     0.029 C 
ATOM      2  C   UNL     1      -2.621  -1.560  -1.261  1.00  0.00     0.017 C 
ATOM      3  C   UNL     1      -4.022  -1.324  -0.666  1.00  0.00     0.077 C 
ATOM      4  C   UNL     1      -3.805  -0.234   0.344  1.00  0.00     0.139 C 
ATOM      5  O   UNL     1      -4.701   0.252   1.017  1.00  0.00    -0.299 OA
ATOM      6  C   UNL     1      -2.388   0.233   0.375  1.00  0.00     0.033 C 
ATOM      7  C   UNL     1      -2.280   1.470  -0.559  1.00  0.00     0.020 C 
ATOM      8  C   UNL     1      -1.788   0.539   1.769  1.00  0.00     0.016 C 
ATOM      9  C   UNL     1      -0.247   0.749   1.680  1.00  0.00     0.014 C 
ATOM     10  C   UNL     1       0.494  -0.389   0.914  1.00  0.00     0.045 C 
ATOM     11  C   UNL     1       1.962  -0.070   0.724  1.00  0.00    -0.037 A 
ATOM     12  C   UNL     1       2.521   0.101  -0.561  1.00  0.00    -0.037 A 
ATOM     13  C   UNL     1       1.684   0.014  -1.809  1.00  0.00     0.063 C 
ATOM     14  C   UNL     1       0.313  -0.565  -1.599  1.00  0.00    -0.022 C 
ATOM     15  C   UNL     1      -0.233  -0.727  -0.381  1.00  0.00    -0.062 C 
ATOM     16  C   UNL     1       3.887   0.400  -0.689  1.00  0.00     0.050 A 
ATOM     17  C   UNL     1       4.703   0.503   0.444  1.00  0.00     0.115 A 
ATOM     18  C   UNL     1       4.155   0.310   1.712  1.00  0.00     0.046 A 
ATOM     19  C   UNL     1       2.796   0.022   1.853  1.00  0.00     0.008 A 
ENDROOT
BRANCH  17  20
ATOM     20  O   UNL     1       6.060   0.795   0.319  1.00  0.00    -0.508 OA
ATOM     21  H   UNL     1       6.489   0.941  -0.587  1.00  0.00     0.293 HD
ENDBRANCH  17  20
TORSDOF 1
