REMARK SMILES C=C[C@@]1(C)CC(=O)[C@]2(O)[C@@]3(C)[C@@H](O)CCC(C)(C)[C@@H]3[C@H](O)[C@H](OC(C)=O)[C@@]2(C)O1
REMARK SMILES IDX 12 1 14 2 15 3 16 4 17 5 18 6 19 7 20 8 22 9 27 10 28 11
REMARK SMILES IDX 29 12 3 13 4 14 5 15 6 16 7 17 8 18 10 19 11 20 13 21 9 23
REMARK SMILES IDX 21 25 23 27 24 28 25 29 26 30 2 31 1 32
REMARK H PARENT 13 22 9 24 21 26
REMARK Flexibility Score: inf
ROOT
ATOM      1  C   UNL     1      -1.550  -2.646  -0.037  1.00  0.00     0.124 C 
ATOM      2  C   UNL     1      -3.092  -2.716  -0.047  1.00  0.00     0.033 C 
ATOM      3  C   UNL     1      -3.710  -1.698   0.911  1.00  0.00     0.009 C 
ATOM      4  C   UNL     1      -3.300  -0.235   0.596  1.00  0.00    -0.029 C 
ATOM      5  C   UNL     1      -3.830   0.634   1.767  1.00  0.00     0.011 C 
ATOM      6  C   UNL     1      -4.043   0.240  -0.680  1.00  0.00     0.011 C 
ATOM      7  C   UNL     1      -1.714  -0.146   0.524  1.00  0.00     0.039 C 
ATOM      8  C   UNL     1      -1.134   1.302   0.416  1.00  0.00     0.162 C 
ATOM      9  C   UNL     1       0.411   1.337   0.568  1.00  0.00     0.240 C 
ATOM     10  C   UNL     1       1.195   0.327  -0.326  1.00  0.00     0.142 C 
ATOM     11  C   UNL     1       1.210   0.845  -1.797  1.00  0.00     0.050 C 
ATOM     12  O   UNL     1       2.531   0.356   0.185  1.00  0.00    -0.357 OA
ATOM     13  C   UNL     1       3.501  -0.557  -0.351  1.00  0.00     0.091 C 
ATOM     14  C   UNL     1       4.233   0.080  -1.558  1.00  0.00     0.047 C 
ATOM     15  C   UNL     1       2.956  -1.979  -0.739  1.00  0.00     0.118 C 
ATOM     16  C   UNL     1       1.475  -2.037  -0.943  1.00  0.00     0.171 C 
ATOM     17  O   UNL     1       1.009  -2.905  -1.665  1.00  0.00    -0.296 OA
ATOM     18  C   UNL     1       0.599  -1.111  -0.111  1.00  0.00     0.163 C 
ATOM     19  C   UNL     1      -0.985  -1.208  -0.405  1.00  0.00     0.038 C 
ATOM     20  C   UNL     1      -1.284  -0.967  -1.928  1.00  0.00     0.018 C 
ENDROOT
BRANCH   1  21
ATOM     21  O   UNL     1      -1.113  -3.066   1.231  1.00  0.00    -0.392 OA
ATOM     22  H   UNL     1      -1.165  -4.058   1.249  1.00  0.00     0.210 HD
ENDBRANCH   1  21
BRANCH  18  23
ATOM     23  O   UNL     1       0.818  -1.398   1.263  1.00  0.00    -0.378 OA
ATOM     24  H   UNL     1       1.164  -2.320   1.390  1.00  0.00     0.212 HD
ENDBRANCH  18  23
BRANCH   8  25
ATOM     25  O   UNL     1      -1.544   1.950  -0.758  1.00  0.00    -0.389 OA
ATOM     26  H   UNL     1      -1.531   2.927  -0.581  1.00  0.00     0.211 HD
ENDBRANCH   8  25
BRANCH   9  27
ATOM     27  O   UNL     1       0.906   2.662   0.344  1.00  0.00    -0.457 OA
BRANCH  27  28
ATOM     28  C   UNL     1       0.765   3.712   1.257  1.00  0.00     0.303 C 
ATOM     29  C   UNL     1       1.297   5.059   0.906  1.00  0.00     0.139 C 
ATOM     30  O   UNL     1       0.241   3.522   2.388  1.00  0.00    -0.253 OA
ENDBRANCH  27  28
ENDBRANCH   9  27
BRANCH  13  31
ATOM     31  C   UNL     1       4.553  -0.731   0.741  1.00  0.00     0.000 C 
ATOM     32  C   UNL     1       5.107   0.313   1.370  1.00  0.00     0.007 C 
ENDBRANCH  13  31
TORSDOF 6
