REMARK SMILES Oc1ccc(/C=C/c2cc(O)cc(O)c2)cc1
REMARK SMILES IDX 6 1 7 2 5 3 2 4 3 5 17 6 4 7 16 8 1 9 8 11 9 12 15 13 10 14
REMARK SMILES IDX 13 15 12 16 11 17 14 19
REMARK H PARENT 1 10 11 18 14 20
REMARK Flexibility Score: inf
ROOT
ATOM      1  C   UNL     1      -0.640   0.193  -0.337  1.00  0.00     0.009 C 
ATOM      2  C   UNL     1       0.323  -0.242   0.490  1.00  0.00     0.009 C 
ENDROOT
BRANCH   1   3
ATOM      3  C   UNL     1      -2.091   0.076  -0.045  1.00  0.00    -0.025 A 
ATOM      4  C   UNL     1      -4.864  -0.092   0.421  1.00  0.00     0.115 A 
ATOM      5  C   UNL     1      -4.357   0.856  -0.476  1.00  0.00     0.047 A 
ATOM      6  C   UNL     1      -3.989  -0.962   1.076  1.00  0.00     0.047 A 
ATOM      7  C   UNL     1      -2.982   0.935  -0.711  1.00  0.00     0.012 A 
ATOM      8  C   UNL     1      -2.612  -0.886   0.845  1.00  0.00     0.012 A 
BRANCH   4   9
ATOM      9  O   UNL     1      -6.233  -0.180   0.663  1.00  0.00    -0.508 OA
ATOM     10  H   UNL     1      -6.893   0.435   0.202  1.00  0.00     0.293 HD
ENDBRANCH   4   9
ENDBRANCH   1   3
BRANCH   2  11
ATOM     11  C   UNL     1       1.773  -0.125   0.198  1.00  0.00    -0.018 A 
ATOM     12  C   UNL     1       2.663  -0.992   0.854  1.00  0.00     0.054 A 
ATOM     13  C   UNL     1       2.294   0.846  -0.683  1.00  0.00     0.054 A 
ATOM     14  C   UNL     1       4.040  -0.916   0.619  1.00  0.00     0.119 A 
ATOM     15  C   UNL     1       3.671   0.926  -0.918  1.00  0.00     0.119 A 
ATOM     16  C   UNL     1       4.543   0.041  -0.270  1.00  0.00     0.092 A 
BRANCH  14  17
ATOM     17  O   UNL     1       4.898  -1.795   1.275  1.00  0.00    -0.508 OA
ATOM     18  H   UNL     1       5.900  -1.766   1.127  1.00  0.00     0.293 HD
ENDBRANCH  14  17
BRANCH  15  19
ATOM     19  O   UNL     1       4.163   1.891  -1.793  1.00  0.00    -0.508 OA
ATOM     20  H   UNL     1       5.155   1.977  -1.985  1.00  0.00     0.293 HD
ENDBRANCH  15  19
ENDBRANCH   2  11
TORSDOF 5
