REMARK SMILES C[C@]12CCC(=O)C[C@@H]1CC[C@@H]1[C@@H]2CC[C@]2(C)[C@@H](O)CC[C@@H]12
REMARK SMILES IDX 21 1 20 2 19 3 17 4 15 5 16 6 14 7 13 8 12 9 11 10 10 11
REMARK SMILES IDX 9 12 8 13 7 14 5 15 6 16 4 17 3 18 2 19 1 20 18 21
REMARK H PARENT 18 22
REMARK Flexibility Score: inf
ROOT
ATOM      1  C   UNL     1       1.797   0.249   0.827  1.00  0.00     0.001 C 
ATOM      2  C   UNL     1       2.841   1.287   1.217  1.00  0.00     0.007 C 
ATOM      3  C   UNL     1       4.150   0.482   1.309  1.00  0.00     0.032 C 
ATOM      4  C   UNL     1       3.845  -0.926   0.750  1.00  0.00     0.120 C 
ATOM      5  C   UNL     1       2.552  -0.742  -0.068  1.00  0.00    -0.003 C 
ATOM      6  C   UNL     1       2.903  -0.179  -1.484  1.00  0.00     0.014 C 
ATOM      7  C   UNL     1       1.688  -2.014  -0.201  1.00  0.00     0.010 C 
ATOM      8  C   UNL     1       0.290  -1.685  -0.780  1.00  0.00     0.005 C 
ATOM      9  C   UNL     1      -0.447  -0.546  -0.002  1.00  0.00    -0.001 C 
ATOM     10  C   UNL     1       0.465   0.715   0.205  1.00  0.00    -0.004 C 
ATOM     11  C   UNL     1      -0.234   1.746   1.112  1.00  0.00     0.004 C 
ATOM     12  C   UNL     1      -1.606   2.140   0.556  1.00  0.00     0.005 C 
ATOM     13  C   UNL     1      -2.498   0.898   0.380  1.00  0.00     0.002 C 
ATOM     14  C   UNL     1      -3.932   1.299  -0.012  1.00  0.00     0.079 C 
ATOM     15  C   UNL     1      -4.783   0.074  -0.188  1.00  0.00     0.133 C 
ATOM     16  O   UNL     1      -5.935   0.069   0.219  1.00  0.00    -0.300 OA
ATOM     17  C   UNL     1      -4.256  -1.103  -0.959  1.00  0.00     0.076 C 
ATOM     18  C   UNL     1      -2.796  -1.417  -0.586  1.00  0.00     0.015 C 
ATOM     19  C   UNL     1      -1.863  -0.165  -0.587  1.00  0.00    -0.026 C 
ATOM     20  C   UNL     1      -1.741   0.369  -2.046  1.00  0.00     0.012 C 
ENDROOT
BRANCH   4  21
ATOM     21  O   UNL     1       4.906  -1.416  -0.029  1.00  0.00    -0.393 OA
ATOM     22  H   UNL     1       5.643  -1.626   0.601  1.00  0.00     0.210 HD
ENDBRANCH   4  21
TORSDOF 1
