REMARK SMILES O=CN1CCN(c2ccc(CC3C(=O)Nc4ccccc43)cc2)CC1
REMARK SMILES IDX 10 1 9 2 8 3 7 4 23 5 22 6 11 7 12 8 15 9 13 10 16 11 14 13
REMARK SMILES IDX 21 14 17 15 20 16 18 17 19 18 6 19 5 20 24 21 4 22 25 23
REMARK SMILES IDX 3 24 2 25 1 26
REMARK H PARENT 15 12
REMARK Flexibility Score: inf
ROOT
ATOM      1  C   UNL     1      -0.853  -0.501   0.534  1.00  0.00    -0.047 A 
ATOM      2  C   UNL     1      -0.063  -1.004  -0.511  1.00  0.00     0.006 A 
ATOM      3  C   UNL     1       1.272  -0.611  -0.639  1.00  0.00     0.026 A 
ATOM      4  C   UNL     1       1.837   0.296   0.273  1.00  0.00     0.037 A 
ATOM      5  C   UNL     1       1.046   0.796   1.320  1.00  0.00     0.026 A 
ATOM      6  C   UNL     1      -0.289   0.404   1.447  1.00  0.00     0.006 A 
ENDROOT
BRANCH   1   7
ATOM      7  C   UNL     1      -2.298  -0.910   0.656  1.00  0.00     0.054 C 
BRANCH   7   8
ATOM      8  C   UNL     1      -3.179  -0.195  -0.384  1.00  0.00     0.115 C 
ATOM      9  N   UNL     1      -4.717   1.609   0.216  1.00  0.00    -0.325 N 
ATOM     10  C   UNL     1      -3.365   1.269  -0.071  1.00  0.00     0.232 C 
ATOM     11  C   UNL     1      -5.433   0.400   0.058  1.00  0.00     0.045 A 
ATOM     12  H   UNL     1      -5.102   2.555   0.433  1.00  0.00     0.169 HD
ATOM     13  O   UNL     1      -2.441   2.125  -0.101  1.00  0.00    -0.274 OA
ATOM     14  C   UNL     1      -4.607  -0.650  -0.289  1.00  0.00    -0.012 A 
ATOM     15  C   UNL     1      -6.811   0.233   0.192  1.00  0.00     0.026 A 
ATOM     16  C   UNL     1      -5.130  -1.923  -0.530  1.00  0.00     0.007 A 
ATOM     17  C   UNL     1      -7.352  -1.043  -0.035  1.00  0.00     0.002 A 
ATOM     18  C   UNL     1      -6.515  -2.117  -0.396  1.00  0.00     0.000 A 
ENDBRANCH   7   8
ENDBRANCH   1   7
BRANCH   4  19
ATOM     19  N   UNL     1       3.216   0.692   0.146  1.00  0.00    -0.368 N 
ATOM     20  C   UNL     1       3.749   1.139  -1.147  1.00  0.00     0.138 C 
ATOM     21  C   UNL     1       4.114   0.576   1.306  1.00  0.00     0.138 C 
ATOM     22  C   UNL     1       4.999   0.327  -1.496  1.00  0.00     0.140 C 
ATOM     23  C   UNL     1       5.572   0.872   0.931  1.00  0.00     0.140 C 
ATOM     24  N   UNL     1       5.912   0.230  -0.346  1.00  0.00    -0.342 N 
ATOM     25  C   UNL     1       7.188  -0.411  -0.498  1.00  0.00     0.340 C 
ATOM     26  O   UNL     1       7.509  -0.956  -1.587  1.00  0.00    -0.279 OA
ENDBRANCH   4  19
TORSDOF 3
