REMARK SMILES CC1(C)[C@@H](OC(=O)CCC(=O)O)CC[C@]2(C)[C@H]3C(=O)C=C4[C@@H]5C[C@@](C)(C(=O)O)CC[C@]5(C)CC[C@@]4(C)[C@]3(C)CC[C@@H]12
REMARK SMILES IDX 6 1 7 2 5 3 4 4 13 5 2 6 14 7 41 8 1 9 3 10 15 11 40 12
REMARK SMILES IDX 16 13 17 14 39 15 37 16 18 17 38 18 35 19 19 20 20 21 21 22
REMARK SMILES IDX 34 23 36 24 22 25 33 26 23 27 31 28 24 29 30 30 32 31 25 32
REMARK SMILES IDX 29 33 26 34 27 35 28 36 8 38 9 39 10 40 11 41 12 42
REMARK H PARENT 28 37 12 43
REMARK Flexibility Score: inf
ROOT
ATOM      1  C   UNL     1      -6.388  -2.446  -0.134  1.00  0.00     0.306 C 
ATOM      2  O   UNL     1      -5.843  -3.237   0.685  1.00  0.00    -0.252 OA
ENDROOT
BRANCH   1   3
ATOM      3  O   UNL     1      -5.640  -1.466  -0.799  1.00  0.00    -0.462 OA
BRANCH   3   4
ATOM      4  C   UNL     1      -4.223  -1.302  -0.668  1.00  0.00     0.182 C 
ATOM      5  C   UNL     1      -3.630  -1.184  -2.077  1.00  0.00     0.046 C 
ATOM      6  C   UNL     1      -3.884  -0.076   0.242  1.00  0.00     0.005 C 
ATOM      7  C   UNL     1      -2.113  -0.937  -2.067  1.00  0.00     0.011 C 
ATOM      8  C   UNL     1      -2.321   0.160   0.204  1.00  0.00     0.005 C 
ATOM      9  C   UNL     1      -4.298  -0.440   1.695  1.00  0.00     0.015 C 
ATOM     10  C   UNL     1      -4.715   1.173  -0.183  1.00  0.00     0.015 C 
ATOM     11  C   UNL     1      -1.672   0.303  -1.222  1.00  0.00    -0.018 C 
ATOM     12  C   UNL     1      -1.788   1.164   1.271  1.00  0.00     0.005 C 
ATOM     13  C   UNL     1      -2.090   1.596  -1.964  1.00  0.00     0.012 C 
ATOM     14  C   UNL     1      -0.112   0.255  -0.981  1.00  0.00     0.073 C 
ATOM     15  C   UNL     1      -0.500   1.957   0.958  1.00  0.00     0.009 C 
ATOM     16  C   UNL     1       0.523   1.403  -0.107  1.00  0.00    -0.013 C 
ATOM     17  C   UNL     1       0.829  -0.027  -2.119  1.00  0.00     0.159 C 
ATOM     18  C   UNL     1       0.903   2.633  -1.021  1.00  0.00     0.013 C 
ATOM     19  C   UNL     1       1.880   0.794   0.536  1.00  0.00    -0.005 C 
ATOM     20  O   UNL     1       0.449  -0.088  -3.317  1.00  0.00    -0.295 OA
ATOM     21  C   UNL     1       2.259  -0.178  -1.793  1.00  0.00     0.047 C 
ATOM     22  C   UNL     1       2.785   0.236  -0.610  1.00  0.00    -0.057 C 
ATOM     23  C   UNL     1       2.662   1.869   1.378  1.00  0.00     0.012 C 
ATOM     24  C   UNL     1       1.550  -0.383   1.512  1.00  0.00     0.017 C 
ATOM     25  C   UNL     1       4.290   0.051  -0.418  1.00  0.00     0.023 C 
ATOM     26  C   UNL     1       4.140   1.528   1.650  1.00  0.00     0.008 C 
ATOM     27  C   UNL     1       4.575  -1.330   0.223  1.00  0.00     0.027 C 
ATOM     28  C   UNL     1       4.939   1.238   0.356  1.00  0.00    -0.026 C 
ATOM     29  C   UNL     1       6.085  -1.597   0.438  1.00  0.00     0.066 C 
ATOM     30  C   UNL     1       6.427   0.927   0.706  1.00  0.00     0.008 C 
ATOM     31  C   UNL     1       4.954   2.502  -0.548  1.00  0.00     0.012 C 
ATOM     32  C   UNL     1       6.262  -2.941   1.171  1.00  0.00     0.024 C 
ATOM     33  C   UNL     1       6.654  -0.463   1.323  1.00  0.00     0.019 C 
BRANCH  29  34
ATOM     34  C   UNL     1       6.824  -1.696  -0.889  1.00  0.00     0.309 C 
ATOM     35  O   UNL     1       6.281  -2.263  -1.876  1.00  0.00    -0.252 OA
BRANCH  34  36
ATOM     36  O   UNL     1       8.138  -1.243  -1.001  1.00  0.00    -0.481 OA
ATOM     37  H   UNL     1       8.641  -1.316  -1.876  1.00  0.00     0.296 HD
ENDBRANCH  34  36
ENDBRANCH  29  34
ENDBRANCH   3   4
ENDBRANCH   1   3
BRANCH   1  38
ATOM     38  C   UNL     1      -7.860  -2.537  -0.384  1.00  0.00     0.134 C 
BRANCH  38  39
ATOM     39  C   UNL     1      -8.676  -1.955   0.775  1.00  0.00     0.134 C 
BRANCH  39  40
ATOM     40  C   UNL     1      -8.414  -0.491   0.975  1.00  0.00     0.303 C 
ATOM     41  O   UNL     1      -8.023  -0.066   2.097  1.00  0.00    -0.252 OA
BRANCH  40  42
ATOM     42  O   UNL     1      -8.627   0.404  -0.071  1.00  0.00    -0.481 OA
ATOM     43  H   UNL     1      -8.457   1.396   0.057  1.00  0.00     0.296 HD
ENDBRANCH  40  42
ENDBRANCH  39  40
ENDBRANCH  38  39
ENDBRANCH   1  38
TORSDOF 8
