REMARK SMILES C[C@H](CCC(=O)O)[C@H]1CC[C@H]2[C@@H]3[C@H](O)C[C@@H]4C[C@H](O)CC[C@]4(C)[C@H]3C[C@H](O)[C@]12C
REMARK SMILES IDX 3 1 2 2 1 3 8 4 9 5 28 6 10 7 11 8 26 9 29 10 12 11 25 12
REMARK SMILES IDX 13 13 24 14 15 15 22 16 16 17 21 18 23 19 17 20 20 21 18 22
REMARK SMILES IDX 27 23 14 25 19 27 4 29 5 30 6 31 7 32
REMARK H PARENT 27 24 14 26 19 28 7 33
REMARK Flexibility Score: inf
ROOT
ATOM      1  C   UNL     1      -5.470  -0.696  -0.276  1.00  0.00     0.015 C 
ENDROOT
BRANCH   1   2
ATOM      2  C   UNL     1      -4.044  -1.162  -0.698  1.00  0.00    -0.010 C 
ATOM      3  C   UNL     1      -3.959  -1.304  -2.230  1.00  0.00     0.008 C 
BRANCH   2   4
ATOM      4  C   UNL     1      -2.905  -0.263  -0.107  1.00  0.00     0.001 C 
ATOM      5  C   UNL     1      -2.982  -0.154   1.440  1.00  0.00     0.005 C 
ATOM      6  C   UNL     1      -1.421  -0.680  -0.368  1.00  0.00    -0.000 C 
ATOM      7  C   UNL     1      -1.545  -0.003   1.958  1.00  0.00     0.005 C 
ATOM      8  C   UNL     1      -0.709   0.168   0.699  1.00  0.00     0.004 C 
ATOM      9  C   UNL     1      -0.824  -0.291  -1.754  1.00  0.00     0.121 C 
ATOM     10  C   UNL     1      -1.242  -2.216  -0.123  1.00  0.00     0.015 C 
ATOM     11  C   UNL     1       0.816  -0.088   0.813  1.00  0.00     0.025 C 
ATOM     12  C   UNL     1       0.717  -0.495  -1.781  1.00  0.00     0.037 C 
ATOM     13  C   UNL     1       1.475   0.829   1.900  1.00  0.00     0.118 C 
ATOM     14  C   UNL     1       1.503   0.127  -0.574  1.00  0.00     0.004 C 
ATOM     15  C   UNL     1       2.982   1.069   1.657  1.00  0.00     0.036 C 
ATOM     16  C   UNL     1       3.049  -0.272  -0.538  1.00  0.00    -0.026 C 
ATOM     17  C   UNL     1       3.630  -0.113   0.920  1.00  0.00     0.000 C 
ATOM     18  C   UNL     1       3.805   0.662  -1.536  1.00  0.00     0.010 C 
ATOM     19  C   UNL     1       3.264  -1.753  -0.964  1.00  0.00     0.012 C 
ATOM     20  C   UNL     1       5.180  -0.061   0.991  1.00  0.00     0.036 C 
ATOM     21  C   UNL     1       5.331   0.560  -1.446  1.00  0.00     0.032 C 
ATOM     22  C   UNL     1       5.826   0.881  -0.032  1.00  0.00     0.114 C 
BRANCH   9  23
ATOM     23  O   UNL     1      -1.197   1.008  -2.157  1.00  0.00    -0.393 OA
ATOM     24  H   UNL     1      -0.562   1.662  -1.772  1.00  0.00     0.210 HD
ENDBRANCH   9  23
BRANCH  13  25
ATOM     25  O   UNL     1       0.833   2.079   1.970  1.00  0.00    -0.393 OA
ATOM     26  H   UNL     1       1.069   2.476   2.849  1.00  0.00     0.210 HD
ENDBRANCH  13  25
BRANCH  22  27
ATOM     27  O   UNL     1       5.554   2.217   0.303  1.00  0.00    -0.393 OA
ATOM     28  H   UNL     1       6.193   2.778  -0.210  1.00  0.00     0.210 HD
ENDBRANCH  22  27
ENDBRANCH   2   4
ENDBRANCH   1   2
BRANCH   1  29
ATOM     29  C   UNL     1      -5.936   0.661  -0.848  1.00  0.00     0.123 C 
BRANCH  29  30
ATOM     30  C   UNL     1      -5.529   1.821   0.008  1.00  0.00     0.303 C 
ATOM     31  O   UNL     1      -4.764   2.710  -0.452  1.00  0.00    -0.252 OA
BRANCH  30  32
ATOM     32  O   UNL     1      -6.019   1.930   1.306  1.00  0.00    -0.481 OA
ATOM     33  H   UNL     1      -5.756   2.710   1.896  1.00  0.00     0.296 HD
ENDBRANCH  30  32
ENDBRANCH  29  30
ENDBRANCH   1  29
TORSDOF 8
