REMARK SMILES Nc1nc(=O)c2c([nH]1)NC[C@H](CNc1ccc(C(=O)N[C@@H](CCC(=O)N[C@@H](CCC(=O)N[C@@H](CCC(=O)O)C(=O)O)C(=O)O)C(=O)O)cc1)N2C=O
REMARK SMILES IDX 24 1 25 2 26 3 23 5 22 6 21 7 20 8 18 9 19 10 17 12 14 13
REMARK SMILES IDX 15 14 49 15 16 16 48 17 13 18 12 20 11 21 2 22 3 23 8 24
REMARK SMILES IDX 4 25 7 26 5 28 6 29 9 30 50 31 10 32 1 34 51 37 52 38 45 39
REMARK SMILES IDX 46 40 47 41 27 43 28 44 29 45 30 46 31 47 32 48 33 50 34 51
REMARK SMILES IDX 35 52 36 53 37 54 38 55 39 57 40 58 41 59 42 61 43 62 44 63
REMARK H PARENT 26 4 20 11 13 19 8 27 9 33 1 35 1 36 47 42 32 49 38 56 41 60
REMARK H PARENT 44 64
REMARK Flexibility Score: inf
ROOT
ATOM      1  C   UNL     1       4.444  -0.408  -0.440  1.00  0.00     0.220 C 
ATOM      2  O   UNL     1       4.917  -1.309  -1.186  1.00  0.00    -0.275 OA
ATOM      3  N   UNL     1       4.841  -0.320   0.936  1.00  0.00    -0.343 N 
ATOM      4  H   UNL     1       4.403   0.416   1.535  1.00  0.00     0.164 HD
ENDROOT
BRANCH   1   5
ATOM      5  C   UNL     1       3.457   0.573  -1.002  1.00  0.00     0.103 C 
BRANCH   5   6
ATOM      6  C   UNL     1       2.038   0.364  -0.440  1.00  0.00     0.047 C 
BRANCH   6   7
ATOM      7  C   UNL     1       1.273  -0.805  -1.098  1.00  0.00     0.192 C 
BRANCH   7   8
ATOM      8  N   UNL     1      -0.136  -0.757  -0.699  1.00  0.00    -0.339 N 
ATOM      9  C   UNL     1      -1.197  -1.193  -1.565  1.00  0.00     0.251 C 
ATOM     10  O   UNL     1      -0.917  -1.757  -2.659  1.00  0.00    -0.269 OA
ATOM     11  H   UNL     1      -0.350  -0.571   0.307  1.00  0.00     0.164 HD
BRANCH   9  12
ATOM     12  C   UNL     1      -2.620  -1.003  -1.187  1.00  0.00     0.039 A 
ATOM     13  C   UNL     1      -5.341  -0.651  -0.495  1.00  0.00     0.034 A 
ATOM     14  C   UNL     1      -4.965  -1.606  -1.452  1.00  0.00     0.026 A 
ATOM     15  C   UNL     1      -4.341   0.134   0.109  1.00  0.00     0.026 A 
ATOM     16  C   UNL     1      -3.622  -1.781  -1.796  1.00  0.00     0.016 A 
ATOM     17  C   UNL     1      -2.997  -0.036  -0.238  1.00  0.00     0.016 A 
BRANCH  13  18
ATOM     18  N   UNL     1      -6.733  -0.493  -0.165  1.00  0.00    -0.383 N 
ATOM     19  H   UNL     1      -7.428  -1.111  -0.643  1.00  0.00     0.160 HD
BRANCH  18  20
ATOM     20  C   UNL     1      -7.221   0.502   0.795  1.00  0.00     0.140 C 
BRANCH  20  21
ATOM     21  C   UNL     1      -8.760   0.471   0.910  1.00  0.00     0.129 C 
ATOM     22  C   UNL     1     -13.685   0.890   0.113  1.00  0.00     0.202 A 
ATOM     23  N   UNL     1     -13.132   0.681  -1.111  1.00  0.00    -0.173 NA
ATOM     24  N   UNL     1     -12.884   1.075   1.199  1.00  0.00    -0.311 N 
ATOM     25  C   UNL     1     -11.786   0.665  -1.286  1.00  0.00     0.300 A 
ATOM     26  C   UNL     1     -11.528   1.071   1.072  1.00  0.00     0.136 A 
ATOM     27  H   UNL     1     -13.314   1.223   2.139  1.00  0.00     0.171 HD
ATOM     28  O   UNL     1     -11.316   0.442  -2.433  1.00  0.00    -0.265 OA
ATOM     29  C   UNL     1     -10.939   0.877  -0.186  1.00  0.00     0.153 A 
ATOM     30  N   UNL     1     -10.689   1.253   2.224  1.00  0.00    -0.367 N 
ATOM     31  N   UNL     1      -9.501   0.897  -0.303  1.00  0.00    -0.300 N 
ATOM     32  C   UNL     1      -9.232   1.325   2.100  1.00  0.00     0.141 C 
ATOM     33  H   UNL     1     -11.124   1.407   3.161  1.00  0.00     0.162 HD
BRANCH  22  34
ATOM     34  N   UNL     1     -15.105   0.905   0.254  1.00  0.00    -0.369 N 
ATOM     35  H   UNL     1     -15.546   1.058   1.187  1.00  0.00     0.159 HD
ATOM     36  H   UNL     1     -15.720   0.773  -0.579  1.00  0.00     0.159 HD
ENDBRANCH  22  34
BRANCH  31  37
ATOM     37  C   UNL     1      -8.935   1.697  -1.363  1.00  0.00     0.345 C 
ATOM     38  O   UNL     1      -7.775   1.491  -1.803  1.00  0.00    -0.278 OA
ENDBRANCH  31  37
ENDBRANCH  20  21
ENDBRANCH  18  20
ENDBRANCH  13  18
ENDBRANCH   9  12
ENDBRANCH   7   8
BRANCH   7  39
ATOM     39  C   UNL     1       1.846  -2.139  -0.714  1.00  0.00     0.326 C 
ATOM     40  O   UNL     1       1.797  -2.530   0.482  1.00  0.00    -0.250 OA
BRANCH  39  41
ATOM     41  O   UNL     1       2.429  -2.948  -1.685  1.00  0.00    -0.480 OA
ATOM     42  H   UNL     1       2.824  -3.847  -1.440  1.00  0.00     0.296 HD
ENDBRANCH  39  41
ENDBRANCH   7  39
ENDBRANCH   6   7
ENDBRANCH   5   6
ENDBRANCH   1   5
BRANCH   3  43
ATOM     43  C   UNL     1       5.732  -1.306   1.555  1.00  0.00     0.192 C 
BRANCH  43  44
ATOM     44  C   UNL     1       6.443  -0.715   2.791  1.00  0.00     0.047 C 
BRANCH  44  45
ATOM     45  C   UNL     1       7.277   0.538   2.480  1.00  0.00     0.103 C 
BRANCH  45  46
ATOM     46  C   UNL     1       8.350   0.264   1.466  1.00  0.00     0.220 C 
ATOM     47  O   UNL     1       9.326  -0.468   1.783  1.00  0.00    -0.275 OA
ATOM     48  N   UNL     1       8.242   0.806   0.139  1.00  0.00    -0.343 N 
ATOM     49  H   UNL     1       7.404   1.386  -0.096  1.00  0.00     0.164 HD
BRANCH  48  50
ATOM     50  C   UNL     1       9.226   0.573  -0.923  1.00  0.00     0.192 C 
BRANCH  50  51
ATOM     51  C   UNL     1      10.598   1.165  -0.523  1.00  0.00     0.048 C 
BRANCH  51  52
ATOM     52  C   UNL     1      11.489   1.447  -1.742  1.00  0.00     0.125 C 
BRANCH  52  53
ATOM     53  C   UNL     1      12.812   1.991  -1.307  1.00  0.00     0.303 C 
ATOM     54  O   UNL     1      12.954   3.228  -1.115  1.00  0.00    -0.252 OA
BRANCH  53  55
ATOM     55  O   UNL     1      13.870   1.123  -1.059  1.00  0.00    -0.481 OA
ATOM     56  H   UNL     1      14.768   1.473  -0.747  1.00  0.00     0.296 HD
ENDBRANCH  53  55
ENDBRANCH  52  53
ENDBRANCH  51  52
ENDBRANCH  50  51
BRANCH  50  57
ATOM     57  C   UNL     1       9.269  -0.896  -1.267  1.00  0.00     0.326 C 
ATOM     58  O   UNL     1      10.366  -1.504  -1.406  1.00  0.00    -0.250 OA
BRANCH  57  59
ATOM     59  O   UNL     1       8.074  -1.579  -1.479  1.00  0.00    -0.480 OA
ATOM     60  H   UNL     1       8.074  -2.561  -1.727  1.00  0.00     0.296 HD
ENDBRANCH  57  59
ENDBRANCH  50  57
ENDBRANCH  48  50
ENDBRANCH  45  46
ENDBRANCH  44  45
ENDBRANCH  43  44
BRANCH  43  61
ATOM     61  C   UNL     1       4.938  -2.513   1.957  1.00  0.00     0.326 C 
ATOM     62  O   UNL     1       5.328  -3.666   1.624  1.00  0.00    -0.250 OA
BRANCH  61  63
ATOM     63  O   UNL     1       3.789  -2.366   2.730  1.00  0.00    -0.480 OA
ATOM     64  H   UNL     1       3.246  -3.173   3.009  1.00  0.00     0.296 HD
ENDBRANCH  61  63
ENDBRANCH  43  61
ENDBRANCH   3  43
TORSDOF 25
