REMARK SMILES O=[N+]([O-])c1cc(O)c(O)c([N+](=O)[O-])c1
REMARK SMILES IDX 6 1 5 2 4 3 14 4 10 5 8 6 7 7 9 9 2 11 3 12 1 13 11 14 13 15
REMARK SMILES IDX 12 16
REMARK H PARENT 7 8 9 10
REMARK Flexibility Score: inf
ROOT
ATOM      1  C   UNL     1      -0.547  -1.283   0.522  1.00  0.00     0.171 A 
ATOM      2  C   UNL     1      -1.469  -0.234   0.559  1.00  0.00     0.136 A 
ATOM      3  C   UNL     1      -1.127   1.047   0.109  1.00  0.00     0.280 A 
ATOM      4  C   UNL     1       0.165   1.269  -0.392  1.00  0.00     0.175 A 
ATOM      5  C   UNL     1       1.114   0.232  -0.445  1.00  0.00     0.321 A 
ATOM      6  C   UNL     1       0.760  -1.055   0.028  1.00  0.00     0.237 A 
ENDROOT
BRANCH   1   7
ATOM      7  O   UNL     1      -0.975  -2.531   0.983  1.00  0.00    -0.504 OA
ATOM      8  H   UNL     1      -0.411  -3.367   0.971  1.00  0.00     0.293 HD
ENDBRANCH   1   7
BRANCH   6   9
ATOM      9  O   UNL     1       1.722  -2.070   0.010  1.00  0.00    -0.500 OA
ATOM     10  H   UNL     1       1.572  -3.005   0.360  1.00  0.00     0.294 HD
ENDBRANCH   6   9
BRANCH   3  11
ATOM     11  N   UNL     1      -2.090   2.116   0.156  1.00  0.00     0.063 N 
ATOM     12  O   UNL     1      -3.358   1.895   0.644  1.00  0.00    -0.258 OA
ATOM     13  O   UNL     1      -1.793   3.261  -0.244  1.00  0.00    -0.258 OA
ENDBRANCH   3  11
BRANCH   5  14
ATOM     14  N   UNL     1       2.429   0.508  -0.973  1.00  0.00     0.067 N 
ATOM     15  O   UNL     1       2.839   1.807  -1.173  1.00  0.00    -0.258 OA
ATOM     16  O   UNL     1       3.199  -0.416  -1.308  1.00  0.00    -0.258 OA
ENDBRANCH   5  14
TORSDOF 4
