REMARK SMILES CC(C)=CCC/C(C)=C/CO[P@@](=O)(O)OP(=O)(O)O
REMARK SMILES IDX 10 1 9 2 7 3 8 4 6 5 5 6 4 7 1 8 2 9 3 10 11 11 12 12 13 13
REMARK SMILES IDX 14 14 15 16 16 17 17 18 18 19 19 21
REMARK H PARENT 14 15 18 20 19 22
REMARK Flexibility Score: inf
ROOT
ATOM      1  C   UNL     1       0.915  -0.225  -0.567  1.00  0.00     0.201 C 
ENDROOT
BRANCH   1   2
ATOM      2  C   UNL     1      -0.438  -0.053  -1.197  1.00  0.00     0.001 C 
ATOM      3  C   UNL     1      -1.115   1.117  -1.222  1.00  0.00    -0.075 C 
ATOM      4  C   UNL     1      -0.538   2.381  -0.628  1.00  0.00     0.039 C 
BRANCH   3   5
ATOM      5  C   UNL     1      -2.508   1.159  -1.813  1.00  0.00     0.034 C 
BRANCH   5   6
ATOM      6  C   UNL     1      -3.583   0.883  -0.753  1.00  0.00     0.032 C 
BRANCH   6   7
ATOM      7  C   UNL     1      -3.573  -0.566  -0.320  1.00  0.00    -0.028 C 
ATOM      8  C   UNL     1      -3.109  -2.501   1.124  1.00  0.00     0.039 C 
ATOM      9  C   UNL     1      -3.116  -1.014   0.872  1.00  0.00    -0.080 C 
ATOM     10  C   UNL     1      -2.607  -0.077   1.942  1.00  0.00     0.039 C 
ENDBRANCH   6   7
ENDBRANCH   5   6
ENDBRANCH   3   5
ENDBRANCH   1   2
BRANCH   1  11
ATOM     11  O   UNL     1       1.868   0.519  -1.289  1.00  0.00    -0.283 OA
BRANCH  11  12
ATOM     12  P   UNL     1       3.360   0.399  -0.474  1.00  0.00     0.481 P 
ATOM     13  O   UNL     1       4.409   1.125  -1.287  1.00  0.00    -0.228 OA
BRANCH  12  14
ATOM     14  O   UNL     1       3.213   1.127   1.053  1.00  0.00    -0.302 OA
ATOM     15  H   UNL     1       3.523   2.061   0.929  1.00  0.00     0.223 HD
ENDBRANCH  12  14
BRANCH  12  16
ATOM     16  O   UNL     1       3.789  -1.244  -0.336  1.00  0.00    -0.185 OA
BRANCH  16  17
ATOM     17  P   UNL     1       5.053  -1.354   0.798  1.00  0.00     0.478 P 
ATOM     18  O   UNL     1       5.618  -2.756   0.754  1.00  0.00    -0.228 OA
BRANCH  17  19
ATOM     19  O   UNL     1       6.289  -0.254   0.432  1.00  0.00    -0.302 OA
ATOM     20  H   UNL     1       6.916  -0.312   1.197  1.00  0.00     0.223 HD
ENDBRANCH  17  19
BRANCH  17  21
ATOM     21  O   UNL     1       4.455  -1.051   2.355  1.00  0.00    -0.302 OA
ATOM     22  H   UNL     1       5.235  -1.165   2.955  1.00  0.00     0.223 HD
ENDBRANCH  17  21
ENDBRANCH  16  17
ENDBRANCH  12  16
ENDBRANCH  11  12
ENDBRANCH   1  11
TORSDOF 11
