REMARK SMILES C=CC1=C(C)c2cc3[nH]c(cc4nc(cc5[nH]c(cc1n2)c(C)c5CCC(=O)O)C(CCC(=O)O)=C4C)c(C)c3C=C
REMARK SMILES IDX 23 1 22 2 24 3 16 4 15 5 14 6 13 7 12 8 11 9 10 10 38 11
REMARK SMILES IDX 39 12 40 13 8 14 9 15 7 16 6 17 21 18 20 19 19 20 18 21
REMARK SMILES IDX 17 22 3 23 4 24 5 25 36 26 37 27 30 28 25 31 26 32 27 33
REMARK SMILES IDX 28 34 29 35 2 37 1 38 31 39 32 40 33 41 34 42 35 43 41 45
REMARK SMILES IDX 42 46
REMARK H PARENT 9 29 17 30 29 36 35 44
REMARK Flexibility Score: inf
ROOT
ATOM      1  C   UNL     1       2.582  -4.467   0.206  1.00  0.00     0.047 C 
ATOM      2  C   UNL     1       2.158  -3.028   0.287  1.00  0.00    -0.022 A 
ATOM      3  C   UNL     1       2.962  -1.903   0.143  1.00  0.00    -0.019 A 
ATOM      4  C   UNL     1       2.122  -0.801   0.280  1.00  0.00     0.044 A 
ATOM      5  C   UNL     1       2.532   0.541   0.172  1.00  0.00     0.055 A 
ATOM      6  C   UNL     1       1.685   1.651   0.051  1.00  0.00     0.069 A 
ATOM      7  N   UNL     1       0.344   1.588  -0.078  1.00  0.00    -0.248 NA
ATOM      8  C   UNL     1      -0.098   2.854  -0.237  1.00  0.00     0.069 A 
ATOM      9  C   UNL     1      -1.431   3.208  -0.503  1.00  0.00     0.055 A 
ATOM     10  C   UNL     1      -2.539   2.337  -0.496  1.00  0.00     0.044 A 
ATOM     11  C   UNL     1      -3.818   2.671  -0.931  1.00  0.00    -0.018 A 
ATOM     12  C   UNL     1      -4.270   4.005  -1.455  1.00  0.00     0.047 C 
ATOM     13  C   UNL     1      -4.603   1.533  -0.766  1.00  0.00     0.002 A 
ATOM     14  C   UNL     1      -3.779   0.568  -0.196  1.00  0.00     0.048 A 
ATOM     15  N   UNL     1      -2.537   1.070  -0.029  1.00  0.00    -0.355 N 
ATOM     16  C   UNL     1      -4.193  -0.726   0.175  1.00  0.00     0.055 A 
ATOM     17  C   UNL     1      -3.352  -1.777   0.572  1.00  0.00     0.069 A 
ATOM     18  N   UNL     1      -2.006  -1.759   0.498  1.00  0.00    -0.248 NA
ATOM     19  C   UNL     1      -1.570  -2.968   0.906  1.00  0.00     0.073 A 
ATOM     20  C   UNL     1      -0.236  -3.392   0.820  1.00  0.00     0.055 A 
ATOM     21  C   UNL     1       0.873  -2.567   0.549  1.00  0.00     0.044 A 
ATOM     22  N   UNL     1       0.866  -1.217   0.557  1.00  0.00    -0.355 N 
ATOM     23  C   UNL     1      -2.720  -3.823   1.250  1.00  0.00     0.005 C 
ATOM     24  C   UNL     1      -3.809  -3.091   1.032  1.00  0.00    -0.016 C 
ATOM     25  C   UNL     1      -5.240  -3.496   1.257  1.00  0.00     0.047 C 
ATOM     26  C   UNL     1       1.039   3.787  -0.217  1.00  0.00    -0.020 C 
ATOM     27  C   UNL     1       1.006   5.272  -0.440  1.00  0.00     0.047 C 
ATOM     28  C   UNL     1       2.135   3.042  -0.078  1.00  0.00    -0.017 C 
ATOM     29  H   UNL     1      -1.760   0.613   0.480  1.00  0.00     0.167 HD
ATOM     30  H   UNL     1       0.074  -0.614   0.849  1.00  0.00     0.167 HD
ENDROOT
BRANCH   3  31
ATOM     31  C   UNL     1       4.432  -1.876  -0.201  1.00  0.00     0.050 C 
BRANCH  31  32
ATOM     32  C   UNL     1       4.660  -1.616  -1.695  1.00  0.00     0.127 C 
BRANCH  32  33
ATOM     33  C   UNL     1       4.309  -2.815  -2.524  1.00  0.00     0.303 C 
ATOM     34  O   UNL     1       3.113  -3.016  -2.877  1.00  0.00    -0.252 OA
BRANCH  33  35
ATOM     35  O   UNL     1       5.296  -3.736  -2.862  1.00  0.00    -0.481 OA
ATOM     36  H   UNL     1       5.075  -4.564  -3.404  1.00  0.00     0.296 HD
ENDBRANCH  33  35
ENDBRANCH  32  33
ENDBRANCH  31  32
ENDBRANCH   3  31
BRANCH  23  37
ATOM     37  C   UNL     1      -2.704  -5.210   1.757  1.00  0.00     0.003 C 
ATOM     38  C   UNL     1      -1.792  -5.641   2.627  1.00  0.00     0.009 C 
ENDBRANCH  23  37
BRANCH  28  39
ATOM     39  C   UNL     1       3.558   3.539  -0.028  1.00  0.00     0.050 C 
BRANCH  39  40
ATOM     40  C   UNL     1       4.025   3.681   1.422  1.00  0.00     0.127 C 
BRANCH  40  41
ATOM     41  C   UNL     1       5.440   4.162   1.473  1.00  0.00     0.303 C 
ATOM     42  O   UNL     1       6.385   3.332   1.548  1.00  0.00    -0.252 OA
BRANCH  41  43
ATOM     43  O   UNL     1       5.713   5.524   1.402  1.00  0.00    -0.481 OA
ATOM     44  H   UNL     1       6.667   5.865   1.412  1.00  0.00     0.296 HD
ENDBRANCH  41  43
ENDBRANCH  40  41
ENDBRANCH  39  40
ENDBRANCH  28  39
BRANCH  13  45
ATOM     45  C   UNL     1      -6.034   1.367  -1.105  1.00  0.00     0.003 C 
ATOM     46  C   UNL     1      -6.562   1.843  -2.230  1.00  0.00     0.009 C 
ENDBRANCH  13  45
TORSDOF 10
