REMARK SMILES CCSC(=N)N
REMARK SMILES IDX 3 1 2 2 1 3 4 4 6 5 5 6
REMARK H PARENT 6 7 6 8 5 9
REMARK Flexibility Score: inf
ROOT
ATOM      1  S   UNL     1      -0.118   1.004  -0.578  1.00  0.00    -0.090 SA
ENDROOT
BRANCH   1   2
ATOM      2  C   UNL     1      -0.861  -0.291   0.468  1.00  0.00     0.075 C 
ATOM      3  C   UNL     1      -2.376  -0.259   0.338  1.00  0.00     0.016 C 
ENDBRANCH   1   2
BRANCH   1   4
ATOM      4  C   UNL     1       1.562   0.580  -0.111  1.00  0.00     0.151 C 
ATOM      5  N   UNL     1       2.284  -0.392  -0.865  1.00  0.00    -0.379 N 
ATOM      6  N   UNL     1       2.123   1.159   0.900  1.00  0.00    -0.279 NA
ATOM      7  H   UNL     1       1.837  -0.863  -1.682  1.00  0.00     0.158 HD
ATOM      8  H   UNL     1       3.264  -0.646  -0.605  1.00  0.00     0.158 HD
ATOM      9  H   UNL     1       1.615   1.876   1.465  1.00  0.00     0.190 HD
ENDBRANCH   1   4
TORSDOF 2
