REMARK SMILES O=CN(O)CC(=O)O
REMARK SMILES IDX 5 1 3 2 4 3 2 5 1 6 6 7 7 8 8 9
REMARK H PARENT 4 4 8 10
REMARK Flexibility Score: inf
ROOT
ATOM      1  C   UNL     1      -0.126  -0.996  -0.086  1.00  0.00     0.274 C 
ENDROOT
BRANCH   1   2
ATOM      2  N   UNL     1       0.916  -0.088   0.394  1.00  0.00    -0.216 N 
BRANCH   2   3
ATOM      3  O   UNL     1       1.199  -0.045   1.719  1.00  0.00    -0.286 OA
ATOM      4  H   UNL     1       0.607   0.663   2.084  1.00  0.00     0.246 HD
ENDBRANCH   2   3
BRANCH   2   5
ATOM      5  C   UNL     1       1.682   0.725  -0.504  1.00  0.00     0.366 C 
ATOM      6  O   UNL     1       1.475   0.688  -1.747  1.00  0.00    -0.276 OA
ENDBRANCH   2   5
ENDBRANCH   1   2
BRANCH   1   7
ATOM      7  C   UNL     1      -1.336  -0.221  -0.498  1.00  0.00     0.325 C 
ATOM      8  O   UNL     1      -1.613  -0.082  -1.719  1.00  0.00    -0.250 OA
BRANCH   7   9
ATOM      9  O   UNL     1      -2.141   0.371   0.470  1.00  0.00    -0.480 OA
ATOM     10  H   UNL     1      -2.959   0.908   0.208  1.00  0.00     0.296 HD
ENDBRANCH   7   9
ENDBRANCH   1   7
TORSDOF 5
