REMARK SMILES Nc1nc(=O)c2[nH]cnc2[nH]1
REMARK SMILES IDX 2 1 3 2 4 3 5 4 6 5 10 6 11 7 9 8 8 9 7 10 1 13
REMARK H PARENT 11 11 7 12 1 14 1 15
REMARK Flexibility Score: inf
ROOT
ATOM      1  C   UNL     1       1.682  -0.058  -0.192  1.00  0.00     0.202 A 
ATOM      2  N   UNL     1       1.355  -0.729   0.961  1.00  0.00    -0.173 NA
ATOM      3  C   UNL     1       0.059  -0.845   1.372  1.00  0.00     0.300 A 
ATOM      4  O   UNL     1      -0.228  -1.462   2.431  1.00  0.00    -0.265 OA
ATOM      5  C   UNL     1      -0.922  -0.261   0.584  1.00  0.00     0.151 A 
ATOM      6  C   UNL     1      -0.587   0.396  -0.548  1.00  0.00     0.164 A 
ATOM      7  N   UNL     1       0.700   0.514  -0.960  1.00  0.00    -0.309 N 
ATOM      8  N   UNL     1      -1.678   0.885  -1.162  1.00  0.00    -0.219 NA
ATOM      9  C   UNL     1      -2.681   0.483  -0.333  1.00  0.00     0.199 A 
ATOM     10  N   UNL     1      -2.250  -0.220   0.744  1.00  0.00    -0.339 N 
ATOM     11  H   UNL     1       0.931   1.027  -1.840  1.00  0.00     0.171 HD
ATOM     12  H   UNL     1      -2.823  -0.631   1.514  1.00  0.00     0.168 HD
ENDROOT
BRANCH   1  13
ATOM     13  N   UNL     1       3.050   0.041  -0.588  1.00  0.00    -0.369 N 
ATOM     14  H   UNL     1       3.317   0.547  -1.461  1.00  0.00     0.159 HD
ATOM     15  H   UNL     1       3.800  -0.393  -0.005  1.00  0.00     0.159 HD
ENDBRANCH   1  13
TORSDOF 1
