REMARK SMILES CC(=O)[C@H]1CC[C@H]2[C@@H]3CC=C4C[C@@H](O)CC[C@]4(C)[C@H]3CC[C@]12C
REMARK SMILES IDX 7 1 6 2 5 3 4 4 22 5 23 6 21 7 20 8 19 9 8 10 9 11 10 12
REMARK SMILES IDX 11 13 12 14 13 15 15 16 16 17 17 18 18 19 2 20 1 21 3 22
REMARK SMILES IDX 14 23
REMARK H PARENT 14 24
REMARK Flexibility Score: inf
ROOT
ATOM      1  C   UNL     1       1.297   1.119  -0.432  1.00  0.00    -0.001 C 
ATOM      2  C   UNL     1       2.043   2.066  -1.365  1.00  0.00     0.005 C 
ATOM      3  C   UNL     1       3.510   1.971  -0.906  1.00  0.00     0.012 C 
ATOM      4  C   UNL     1       3.569   0.819   0.129  1.00  0.00     0.062 C 
ATOM      5  C   UNL     1       2.293  -0.010  -0.146  1.00  0.00    -0.020 C 
ATOM      6  C   UNL     1       2.516  -0.972  -1.359  1.00  0.00     0.012 C 
ATOM      7  C   UNL     1       1.765  -0.797   1.071  1.00  0.00     0.008 C 
ATOM      8  C   UNL     1       0.348  -1.356   0.802  1.00  0.00     0.005 C 
ATOM      9  C   UNL     1      -0.677  -0.270   0.320  1.00  0.00     0.003 C 
ATOM     10  C   UNL     1      -0.099   0.604  -0.843  1.00  0.00     0.000 C 
ATOM     11  C   UNL     1      -1.037   1.785  -1.135  1.00  0.00     0.031 C 
ATOM     12  C   UNL     1      -2.483   1.390  -1.217  1.00  0.00    -0.027 C 
ATOM     13  C   UNL     1      -2.983   0.276  -0.643  1.00  0.00    -0.065 C 
ATOM     14  C   UNL     1      -4.476   0.168  -0.424  1.00  0.00     0.063 C 
ATOM     15  C   UNL     1      -4.791   0.219   1.086  1.00  0.00     0.118 C 
ATOM     16  C   UNL     1      -3.653  -0.372   1.961  1.00  0.00     0.033 C 
ATOM     17  C   UNL     1      -2.832  -1.429   1.203  1.00  0.00     0.014 C 
ATOM     18  C   UNL     1      -2.101  -0.839  -0.057  1.00  0.00    -0.008 C 
ATOM     19  C   UNL     1      -2.003  -1.960  -1.124  1.00  0.00     0.016 C 
ENDROOT
BRANCH   4  20
ATOM     20  C   UNL     1       4.869   0.034   0.108  1.00  0.00     0.133 C 
ATOM     21  C   UNL     1       5.487  -0.459   1.383  1.00  0.00     0.088 C 
ATOM     22  O   UNL     1       5.423  -0.221  -0.951  1.00  0.00    -0.300 OA
ENDBRANCH   4  20
BRANCH  15  23
ATOM     23  O   UNL     1      -5.991  -0.472   1.322  1.00  0.00    -0.393 OA
ATOM     24  H   UNL     1      -6.338  -0.156   2.197  1.00  0.00     0.210 HD
ENDBRANCH  15  23
TORSDOF 2
