REMARK SMILES CCCCCCCCCCCCCCCCOC[C@H](CO[P@](=O)([O-])OCC[N+](C)(C)C)OC(C)=O
REMARK SMILES IDX 14 1 13 2 12 3 11 4 10 5 9 6 8 7 7 8 6 9 5 10 4 11 3 12 2 13
REMARK SMILES IDX 1 14 15 15 16 16 17 17 18 18 19 19 20 20 21 21 22 22 24 23
REMARK SMILES IDX 23 24 25 25 26 26 27 27 28 28 29 29 30 30 31 31 32 32 33 33
REMARK SMILES IDX 34 34 35 35
REMARK H PARENT
REMARK Flexibility Score: inf
ROOT
ATOM      1  C   UNL     1      -1.747  -0.757  -1.859  1.00  0.00     0.002 C 
ENDROOT
BRANCH   1   2
ATOM      2  C   UNL     1      -1.158  -2.157  -1.553  1.00  0.00     0.000 C 
BRANCH   2   3
ATOM      3  C   UNL     1      -1.159  -2.538  -0.058  1.00  0.00     0.000 C 
BRANCH   3   4
ATOM      4  C   UNL     1      -2.535  -2.520   0.637  1.00  0.00     0.000 C 
BRANCH   4   5
ATOM      5  C   UNL     1      -3.631  -3.260  -0.150  1.00  0.00     0.000 C 
BRANCH   5   6
ATOM      6  C   UNL     1      -4.921  -3.479   0.665  1.00  0.00     0.000 C 
BRANCH   6   7
ATOM      7  C   UNL     1      -5.534  -2.207   1.284  1.00  0.00    -0.000 C 
BRANCH   7   8
ATOM      8  C   UNL     1      -5.933  -1.149   0.237  1.00  0.00    -0.000 C 
BRANCH   8   9
ATOM      9  C   UNL     1      -6.465   0.148   0.880  1.00  0.00    -0.000 C 
BRANCH   9  10
ATOM     10  C   UNL     1      -7.861   0.023   1.522  1.00  0.00    -0.000 C 
BRANCH  10  11
ATOM     11  C   UNL     1      -9.015  -0.204   0.524  1.00  0.00    -0.000 C 
BRANCH  11  12
ATOM     12  C   UNL     1      -9.191   0.900  -0.540  1.00  0.00    -0.000 C 
BRANCH  12  13
ATOM     13  C   UNL     1      -9.363   2.324   0.018  1.00  0.00    -0.003 C 
ATOM     14  C   UNL     1     -10.618   2.483   0.877  1.00  0.00     0.004 C 
ENDBRANCH  12  13
ENDBRANCH  11  12
ENDBRANCH  10  11
ENDBRANCH   9  10
ENDBRANCH   8   9
ENDBRANCH   7   8
ENDBRANCH   6   7
ENDBRANCH   5   6
ENDBRANCH   4   5
ENDBRANCH   3   4
ENDBRANCH   2   3
ENDBRANCH   1   2
BRANCH   1  15
ATOM     15  C   UNL     1      -0.718   0.232  -2.439  1.00  0.00     0.028 C 
BRANCH  15  16
ATOM     16  C   UNL     1       0.182   0.873  -1.371  1.00  0.00     0.160 C 
BRANCH  16  17
ATOM     17  O   UNL     1       1.110  -0.056  -0.846  1.00  0.00    -0.378 OA
BRANCH  17  18
ATOM     18  C   UNL     1       2.317  -0.080  -1.593  1.00  0.00     0.207 C 
BRANCH  18  19
ATOM     19  C   UNL     1       3.412   0.783  -0.930  1.00  0.00     0.228 C 
BRANCH  19  20
ATOM     20  C   UNL     1       3.662   0.365   0.523  1.00  0.00     0.217 C 
BRANCH  20  21
ATOM     21  O   UNL     1       4.596   1.250   1.101  1.00  0.00    -0.314 OA
BRANCH  21  22
ATOM     22  P   UNL     1       5.084   0.634   2.618  1.00  0.00     0.268 P 
ATOM     23  O   UNL     1       5.654   1.915   3.563  1.00  0.00    -0.756 OA
ATOM     24  O   UNL     1       3.923  -0.016   3.338  1.00  0.00    -0.276 OA
BRANCH  22  25
ATOM     25  O   UNL     1       6.338  -0.506   2.425  1.00  0.00    -0.312 OA
BRANCH  25  26
ATOM     26  C   UNL     1       7.267   0.001   1.493  1.00  0.00     0.231 C 
BRANCH  26  27
ATOM     27  C   UNL     1       8.575  -0.810   1.605  1.00  0.00     0.292 C 
BRANCH  27  28
ATOM     28  N   UNL     1       9.619  -0.489   0.583  1.00  0.00    -0.329 N 
ATOM     29  C   UNL     1      10.853  -1.231   0.942  1.00  0.00     0.334 C 
ATOM     30  C   UNL     1       9.939   0.959   0.561  1.00  0.00     0.334 C 
ATOM     31  C   UNL     1       9.193  -0.926  -0.770  1.00  0.00     0.334 C 
ENDBRANCH  27  28
ENDBRANCH  26  27
ENDBRANCH  25  26
ENDBRANCH  22  25
ENDBRANCH  21  22
ENDBRANCH  20  21
ENDBRANCH  19  20
BRANCH  19  32
ATOM     32  O   UNL     1       3.059   2.166  -0.971  1.00  0.00    -0.458 OA
BRANCH  32  33
ATOM     33  C   UNL     1       3.194   2.961  -2.117  1.00  0.00     0.303 C 
ATOM     34  C   UNL     1       2.722   4.375  -2.084  1.00  0.00     0.139 C 
ATOM     35  O   UNL     1       3.672   2.483  -3.184  1.00  0.00    -0.253 OA
ENDBRANCH  32  33
ENDBRANCH  19  32
ENDBRANCH  18  19
ENDBRANCH  17  18
ENDBRANCH  16  17
ENDBRANCH  15  16
ENDBRANCH   1  15
TORSDOF 26
