REMARK SMILES COc1cc2c(cc1O)CC[C@@H]1[C@@H]2CC[C@]2(C)[C@@H](O)CC[C@@H]12
REMARK SMILES IDX 22 1 21 2 20 3 18 4 16 5 17 6 15 7 14 8 13 9 5 10 6 11 10 12
REMARK SMILES IDX 11 13 12 14 7 15 8 16 3 17 4 18 19 19 2 21 1 22 9 23
REMARK H PARENT 19 20 9 24
REMARK Flexibility Score: inf
ROOT
ATOM      1  C   UNL     1       2.020   0.016   0.838  1.00  0.00     0.001 C 
ATOM      2  C   UNL     1       3.212   0.862   1.266  1.00  0.00     0.007 C 
ATOM      3  C   UNL     1       4.433   0.007   0.877  1.00  0.00     0.032 C 
ATOM      4  C   UNL     1       3.895  -1.182   0.048  1.00  0.00     0.120 C 
ATOM      5  C   UNL     1       2.500  -0.722  -0.419  1.00  0.00    -0.003 C 
ATOM      6  C   UNL     1       2.643   0.190  -1.681  1.00  0.00     0.014 C 
ATOM      7  C   UNL     1       1.504  -1.865  -0.706  1.00  0.00     0.010 C 
ATOM      8  C   UNL     1       0.056  -1.332  -0.861  1.00  0.00     0.009 C 
ATOM      9  C   UNL     1      -0.400  -0.423   0.323  1.00  0.00     0.023 C 
ATOM     10  C   UNL     1      -1.792   0.190   0.149  1.00  0.00    -0.037 A 
ATOM     11  C   UNL     1      -2.121   1.409   0.801  1.00  0.00    -0.041 A 
ATOM     12  C   UNL     1      -1.095   2.234   1.548  1.00  0.00     0.036 C 
ATOM     13  C   UNL     1       0.193   1.470   1.864  1.00  0.00     0.009 C 
ATOM     14  C   UNL     1       0.650   0.687   0.628  1.00  0.00     0.000 C 
ATOM     15  C   UNL     1      -3.419   1.928   0.693  1.00  0.00     0.054 A 
ATOM     16  C   UNL     1      -4.411   1.240  -0.009  1.00  0.00     0.157 A 
ATOM     17  C   UNL     1      -4.121   0.015  -0.614  1.00  0.00     0.160 A 
ATOM     18  C   UNL     1      -2.819  -0.511  -0.521  1.00  0.00     0.054 A 
ENDROOT
BRANCH   4  19
ATOM     19  O   UNL     1       4.745  -1.490  -1.027  1.00  0.00    -0.393 OA
ATOM     20  H   UNL     1       5.560  -1.896  -0.634  1.00  0.00     0.210 HD
ENDBRANCH   4  19
BRANCH  17  21
ATOM     21  O   UNL     1      -5.152  -0.652  -1.295  1.00  0.00    -0.493 OA
ATOM     22  C   UNL     1      -5.006  -1.901  -1.962  1.00  0.00     0.278 C 
ENDBRANCH  17  21
BRANCH  16  23
ATOM     23  O   UNL     1      -5.698   1.768  -0.106  1.00  0.00    -0.504 OA
ATOM     24  H   UNL     1      -5.943   2.653   0.323  1.00  0.00     0.293 HD
ENDBRANCH  16  23
TORSDOF 3
