REMARK SMILES C/C(=C/C=C/[C@@H](C)C(=O)O)[C@H]1CN[C@H](C(=O)O)[C@H]1CC(=O)O
REMARK SMILES IDX 3 1 2 2 1 3 4 4 5 5 6 6 7 7 8 8 9 9 10 10 11 12 12 13 18 14
REMARK SMILES IDX 13 15 14 16 19 18 20 19 21 20 22 21 15 23 16 24 17 25
REMARK H PARENT 10 11 13 17 22 22 17 26
REMARK Flexibility Score: inf
ROOT
ATOM      1  C   UNL     1       0.770  -0.080  -1.818  1.00  0.00    -0.001 C 
ATOM      2  C   UNL     1      -0.485  -0.462  -1.490  1.00  0.00    -0.069 C 
ATOM      3  C   UNL     1      -1.428  -0.670  -2.653  1.00  0.00     0.040 C 
ENDROOT
BRANCH   1   4
ATOM      4  C   UNL     1       1.957  -0.134  -0.952  1.00  0.00    -0.004 C 
ATOM      5  C   UNL     1       2.952   0.748  -1.099  1.00  0.00    -0.012 C 
BRANCH   5   6
ATOM      6  C   UNL     1       4.194   0.721  -0.244  1.00  0.00     0.118 C 
ATOM      7  C   UNL     1       3.863   0.949   1.238  1.00  0.00     0.024 C 
BRANCH   6   8
ATOM      8  C   UNL     1       4.968  -0.551  -0.462  1.00  0.00     0.310 C 
ATOM      9  O   UNL     1       4.686  -1.596   0.186  1.00  0.00    -0.252 OA
BRANCH   8  10
ATOM     10  O   UNL     1       5.970  -0.586  -1.427  1.00  0.00    -0.481 OA
ATOM     11  H   UNL     1       6.493  -1.435  -1.603  1.00  0.00     0.296 HD
ENDBRANCH   8  10
ENDBRANCH   6   8
ENDBRANCH   5   6
ENDBRANCH   1   4
BRANCH   2  12
ATOM     12  C   UNL     1      -1.005  -0.804  -0.079  1.00  0.00     0.034 C 
ATOM     13  C   UNL     1      -0.158  -0.433   1.142  1.00  0.00     0.090 C 
ATOM     14  C   UNL     1      -2.364  -0.172   0.274  1.00  0.00     0.037 C 
ATOM     15  N   UNL     1      -1.050  -0.355   2.303  1.00  0.00    -0.304 NA
ATOM     16  C   UNL     1      -2.427  -0.342   1.802  1.00  0.00     0.169 C 
ATOM     17  H   UNL     1      -0.863   0.543   2.809  1.00  0.00     0.123 HD
BRANCH  14  18
ATOM     18  C   UNL     1      -2.460   1.331  -0.110  1.00  0.00     0.129 C 
BRANCH  18  19
ATOM     19  C   UNL     1      -3.834   1.876   0.136  1.00  0.00     0.303 C 
ATOM     20  O   UNL     1      -4.793   1.529  -0.605  1.00  0.00    -0.252 OA
BRANCH  19  21
ATOM     21  O   UNL     1      -4.054   2.756   1.191  1.00  0.00    -0.481 OA
ATOM     22  H   UNL     1      -4.979   3.127   1.374  1.00  0.00     0.296 HD
ENDBRANCH  19  21
ENDBRANCH  18  19
ENDBRANCH  14  18
BRANCH  16  23
ATOM     23  C   UNL     1      -3.108  -1.630   2.176  1.00  0.00     0.321 C 
ATOM     24  O   UNL     1      -4.341  -1.633   2.442  1.00  0.00    -0.251 OA
BRANCH  23  25
ATOM     25  O   UNL     1      -2.396  -2.827   2.184  1.00  0.00    -0.480 OA
ATOM     26  H   UNL     1      -2.851  -3.701   2.419  1.00  0.00     0.296 HD
ENDBRANCH  23  25
ENDBRANCH  16  23
ENDBRANCH   2  12
TORSDOF 10
