REMARK SMILES O=c1[nH]c(=O)n([C@H]2C[C@H](O)[C@@H](CO)O2)cc1/C=C/Br
REMARK SMILES IDX 11 1 14 2 7 3 8 4 9 5 12 6 13 7 10 9 6 11 15 12 4 13 16 14
REMARK SMILES IDX 3 15 5 16 2 17 1 19 17 20 18 21 19 22
REMARK H PARENT 13 8 10 10 3 18
REMARK Flexibility Score: inf
ROOT
ATOM      1  C   UNL     1      -2.624  -0.676  -0.568  1.00  0.00     0.175 C 
ATOM      2  O   UNL     1      -1.477   0.002  -1.019  1.00  0.00    -0.349 OA
ATOM      3  C   UNL     1      -0.369  -0.638  -0.423  1.00  0.00     0.226 C 
ATOM      4  C   UNL     1      -0.824  -1.382   0.835  1.00  0.00     0.090 C 
ATOM      5  C   UNL     1      -2.325  -1.205   0.835  1.00  0.00     0.150 C 
ENDROOT
BRANCH   1   6
ATOM      6  C   UNL     1      -3.825   0.275  -0.588  1.00  0.00     0.190 C 
BRANCH   6   7
ATOM      7  O   UNL     1      -4.982  -0.406  -0.188  1.00  0.00    -0.394 OA
ATOM      8  H   UNL     1      -5.716   0.261  -0.216  1.00  0.00     0.210 HD
ENDBRANCH   6   7
ENDBRANCH   1   6
BRANCH   5   9
ATOM      9  O   UNL     1      -3.009  -2.403   1.116  1.00  0.00    -0.390 OA
ATOM     10  H   UNL     1      -2.755  -3.074   0.430  1.00  0.00     0.211 HD
ENDBRANCH   5   9
BRANCH   3  11
ATOM     11  N   UNL     1       0.686   0.349  -0.106  1.00  0.00    -0.273 N 
ATOM     12  C   UNL     1       1.980   0.066  -0.445  1.00  0.00     0.107 A 
ATOM     13  C   UNL     1       0.398   1.520   0.549  1.00  0.00     0.330 A 
ATOM     14  C   UNL     1       3.019   0.963  -0.148  1.00  0.00     0.057 A 
ATOM     15  N   UNL     1       1.387   2.410   0.830  1.00  0.00    -0.273 N 
ATOM     16  O   UNL     1      -0.784   1.786   0.902  1.00  0.00    -0.248 OA
ATOM     17  C   UNL     1       2.679   2.163   0.493  1.00  0.00     0.260 A 
ATOM     18  H   UNL     1       1.148   3.302   1.321  1.00  0.00     0.175 HD
ATOM     19  O   UNL     1       3.566   3.015   0.773  1.00  0.00    -0.269 OA
BRANCH  14  20
ATOM     20  C   UNL     1       4.432   0.689  -0.524  1.00  0.00     0.023 C 
ATOM     21  C   UNL     1       4.925  -0.537  -0.708  1.00  0.00     0.052 C 
ATOM     22  Br  UNL     1       6.764  -0.773  -1.165  1.00  0.00    -0.059 Br
ENDBRANCH  14  20
ENDBRANCH   3  11
TORSDOF 5
