REMARK SMILES O=C(O)CN(CC(=O)O)CC(=O)O
REMARK SMILES IDX 5 1 4 2 2 3 1 4 3 5 6 7 7 8 8 9 9 10 10 12 11 13 12 14 13 15
REMARK H PARENT 3 6 9 11 13 16
REMARK Flexibility Score: inf
ROOT
ATOM      1  N   UNL     1      -0.001   0.001  -0.198  1.00  0.00    -0.272 NA
ENDROOT
BRANCH   1   2
ATOM      2  C   UNL     1       0.226  -1.418  -0.553  1.00  0.00     0.208 C 
BRANCH   2   3
ATOM      3  C   UNL     1      -0.670  -2.305   0.254  1.00  0.00     0.317 C 
ATOM      4  O   UNL     1      -0.521  -2.382   1.502  1.00  0.00    -0.251 OA
BRANCH   3   5
ATOM      5  O   UNL     1      -1.674  -3.035  -0.374  1.00  0.00    -0.480 OA
ATOM      6  H   UNL     1      -2.291  -3.635   0.160  1.00  0.00     0.296 HD
ENDBRANCH   3   5
ENDBRANCH   2   3
ENDBRANCH   1   2
BRANCH   1   7
ATOM      7  C   UNL     1       1.175   0.823  -0.560  1.00  0.00     0.208 C 
BRANCH   7   8
ATOM      8  C   UNL     1       2.252   0.668   0.467  1.00  0.00     0.317 C 
ATOM      9  O   UNL     1       2.067   1.085   1.642  1.00  0.00    -0.251 OA
BRANCH   8  10
ATOM     10  O   UNL     1       3.454   0.053   0.128  1.00  0.00    -0.480 OA
ATOM     11  H   UNL     1       4.189  -0.063   0.814  1.00  0.00     0.296 HD
ENDBRANCH   8  10
ENDBRANCH   7   8
ENDBRANCH   1   7
BRANCH   1  12
ATOM     12  C   UNL     1      -1.220   0.514  -0.862  1.00  0.00     0.208 C 
BRANCH  12  13
ATOM     13  C   UNL     1      -1.745   1.710  -0.131  1.00  0.00     0.317 C 
ATOM     14  O   UNL     1      -2.190   1.585   1.041  1.00  0.00    -0.251 OA
BRANCH  13  15
ATOM     15  O   UNL     1      -1.731   2.960  -0.741  1.00  0.00    -0.480 OA
ATOM     16  H   UNL     1      -2.078   3.779  -0.255  1.00  0.00     0.296 HD
ENDBRANCH  13  15
ENDBRANCH  12  13
ENDBRANCH   1  12
TORSDOF 9
