REMARK SMILES Oc1ccccc1
REMARK SMILES IDX 2 1 3 2 4 3 5 4 6 5 7 6 1 7
REMARK H PARENT 1 8
REMARK Flexibility Score: inf
ROOT
ATOM      1  C   UNL     1       1.118   0.086   0.083  1.00  0.00     0.115 A 
ATOM      2  C   UNL     1       0.436  -1.140   0.066  1.00  0.00     0.046 A 
ATOM      3  C   UNL     1      -0.958  -1.165  -0.040  1.00  0.00     0.004 A 
ATOM      4  C   UNL     1      -1.675   0.033  -0.129  1.00  0.00     0.000 A 
ATOM      5  C   UNL     1      -0.997   1.256  -0.112  1.00  0.00     0.004 A 
ATOM      6  C   UNL     1       0.398   1.283  -0.006  1.00  0.00     0.046 A 
ENDROOT
BRANCH   1   7
ATOM      7  O   UNL     1       2.507   0.125   0.188  1.00  0.00    -0.508 OA
ATOM      8  H   UNL     1       3.057  -0.724   0.254  1.00  0.00     0.293 HD
ENDBRANCH   1   7
TORSDOF 1
