REMARK SMILES COc1ccc([C@]2(C#N)CC[C@@H](C(=O)O)CC2)cc1OC1CCCC1
REMARK SMILES IDX 7 1 10 2 11 3 12 4 16 5 17 6 6 7 3 8 19 9 4 10 18 11 5 12
REMARK SMILES IDX 2 13 1 14 20 15 21 16 22 17 25 18 23 19 24 20 8 21 9 22
REMARK SMILES IDX 13 23 14 24 15 25
REMARK H PARENT 15 26
REMARK Flexibility Score: inf
ROOT
ATOM      1  C   UNL     1       2.255   1.175   0.315  1.00  0.00     0.082 C 
ATOM      2  C   UNL     1       2.657  -0.123   1.080  1.00  0.00     0.028 C 
ATOM      3  C   UNL     1       4.175  -0.341   1.093  1.00  0.00     0.017 C 
ATOM      4  C   UNL     1       4.718  -0.561  -0.339  1.00  0.00     0.099 C 
ATOM      5  C   UNL     1       3.918   0.219  -1.415  1.00  0.00     0.017 C 
ATOM      6  C   UNL     1       3.271   1.489  -0.839  1.00  0.00     0.028 C 
ENDROOT
BRANCH   1   7
ATOM      7  C   UNL     1       0.796   1.023  -0.157  1.00  0.00    -0.024 A 
ATOM      8  C   UNL     1      -1.913   0.632  -0.919  1.00  0.00     0.160 A 
ATOM      9  C   UNL     1      -1.580   0.826   0.435  1.00  0.00     0.161 A 
ATOM     10  C   UNL     1      -0.884   0.586  -1.875  1.00  0.00     0.051 A 
ATOM     11  C   UNL     1      -0.245   1.030   0.798  1.00  0.00     0.055 A 
ATOM     12  C   UNL     1       0.449   0.762  -1.499  1.00  0.00     0.009 A 
BRANCH   8  13
ATOM     13  O   UNL     1      -3.260   0.495  -1.284  1.00  0.00    -0.493 OA
ATOM     14  C   UNL     1      -3.722   0.270  -2.612  1.00  0.00     0.278 C 
ENDBRANCH   8  13
BRANCH   9  15
ATOM     15  O   UNL     1      -2.545   0.856   1.455  1.00  0.00    -0.487 OA
BRANCH  15  16
ATOM     16  C   UNL     1      -3.491  -0.174   1.788  1.00  0.00     0.173 C 
ATOM     17  C   UNL     1      -4.894   0.119   1.254  1.00  0.00     0.045 C 
ATOM     18  C   UNL     1      -3.118  -1.585   1.322  1.00  0.00     0.045 C 
ATOM     19  C   UNL     1      -5.408  -1.184   0.647  1.00  0.00     0.004 C 
ATOM     20  C   UNL     1      -4.449  -2.278   1.097  1.00  0.00     0.004 C 
ENDBRANCH  15  16
ENDBRANCH   9  15
ENDBRANCH   1   7
BRANCH   1  21
ATOM     21  C   UNL     1       2.324   2.320   1.254  1.00  0.00     0.074 C 
ATOM     22  N   UNL     1       2.378   3.214   1.987  1.00  0.00    -0.197 NA
ENDBRANCH   1  21
BRANCH   4  23
ATOM     23  C   UNL     1       6.182  -0.219  -0.400  1.00  0.00     0.306 C 
ATOM     24  O   UNL     1       7.030  -1.118  -0.649  1.00  0.00    -0.252 OA
BRANCH  23  25
ATOM     25  O   UNL     1       6.605   1.090  -0.183  1.00  0.00    -0.481 OA
ATOM     26  H   UNL     1       7.589   1.331  -0.218  1.00  0.00     0.296 HD
ENDBRANCH  23  25
ENDBRANCH   4  23
TORSDOF 7
