REMARK SMILES Cc1c(-c2ccc(-c3ccccc3F)cc2)nc2ccc(F)cc2c1C(=O)O
REMARK SMILES IDX 1 1 2 2 3 3 17 4 18 5 19 6 20 7 21 8 22 9 23 10 24 11 25 12
REMARK SMILES IDX 4 13 5 14 16 15 6 16 15 17 7 18 8 19 9 20 13 21 10 22 12 23
REMARK SMILES IDX 14 24 11 25 26 26 27 27 28 28
REMARK H PARENT 28 29
REMARK Flexibility Score: inf
ROOT
ATOM      1  C   UNL     1      -1.358  -0.782  -2.437  1.00  0.00     0.047 C 
ATOM      2  C   UNL     1      -2.040  -0.267  -1.185  1.00  0.00    -0.010 A 
ATOM      3  C   UNL     1      -1.284   0.035  -0.024  1.00  0.00     0.075 A 
ATOM      4  N   UNL     1      -1.922   0.380   1.123  1.00  0.00    -0.247 NA
ATOM      5  C   UNL     1      -3.268   0.501   1.207  1.00  0.00     0.072 A 
ATOM      6  C   UNL     1      -3.847   0.873   2.426  1.00  0.00     0.032 A 
ATOM      7  C   UNL     1      -5.227   1.048   2.524  1.00  0.00     0.041 A 
ATOM      8  C   UNL     1      -6.036   0.863   1.402  1.00  0.00     0.123 A 
ATOM      9  F   UNL     1      -7.375   1.053   1.496  1.00  0.00    -0.207 F 
ATOM     10  C   UNL     1      -5.468   0.490   0.180  1.00  0.00     0.050 A 
ATOM     11  C   UNL     1      -4.074   0.283   0.067  1.00  0.00     0.018 A 
ATOM     12  C   UNL     1      -3.451  -0.108  -1.145  1.00  0.00     0.074 A 
ENDROOT
BRANCH   3  13
ATOM     13  C   UNL     1       0.194  -0.011   0.004  1.00  0.00     0.000 A 
ATOM     14  C   UNL     1       0.851  -0.760   0.991  1.00  0.00     0.011 A 
ATOM     15  C   UNL     1       0.954   0.742  -0.906  1.00  0.00     0.011 A 
ATOM     16  C   UNL     1       2.247  -0.789   1.044  1.00  0.00     0.009 A 
ATOM     17  C   UNL     1       2.350   0.714  -0.853  1.00  0.00     0.009 A 
ATOM     18  C   UNL     1       3.011  -0.059   0.118  1.00  0.00    -0.015 A 
BRANCH  18  19
ATOM     19  C   UNL     1       4.493  -0.081   0.176  1.00  0.00     0.017 A 
ATOM     20  C   UNL     1       5.218   1.122   0.099  1.00  0.00     0.012 A 
ATOM     21  C   UNL     1       5.197  -1.297   0.305  1.00  0.00     0.131 A 
ATOM     22  C   UNL     1       6.615   1.113   0.159  1.00  0.00     0.001 A 
ATOM     23  C   UNL     1       6.594  -1.297   0.363  1.00  0.00     0.040 A 
ATOM     24  F   UNL     1       4.537  -2.483   0.338  1.00  0.00    -0.206 F 
ATOM     25  C   UNL     1       7.302  -0.096   0.292  1.00  0.00     0.003 A 
ENDBRANCH  18  19
ENDBRANCH   3  13
BRANCH  12  26
ATOM     26  C   UNL     1      -4.261  -0.366  -2.359  1.00  0.00     0.336 C 
ATOM     27  O   UNL     1      -4.000   0.238  -3.434  1.00  0.00    -0.246 OA
BRANCH  26  28
ATOM     28  O   UNL     1      -5.299  -1.292  -2.323  1.00  0.00    -0.478 OA
ATOM     29  H   UNL     1      -5.856  -1.482  -3.147  1.00  0.00     0.297 HD
ENDBRANCH  26  28
ENDBRANCH  12  26
TORSDOF 4
