REMARK SMILES COc1ccc(OC)c(Cc2cnc3nc(N)nc(N)c3c2C)c1
REMARK SMILES IDX 10 1 9 2 3 3 24 4 4 5 5 6 6 7 2 8 1 9 7 10 8 11 11 12 22 13
REMARK SMILES IDX 12 14 23 15 21 16 13 17 14 18 19 19 15 20 18 21 16 22 20 23
REMARK SMILES IDX 17 26
REMARK H PARENT 20 24 20 25 17 27 17 28
REMARK Flexibility Score: inf
ROOT
ATOM      1  C   UNL     1       0.661   1.141   2.031  1.00  0.00     0.077 C 
ENDROOT
BRANCH   1   2
ATOM      2  C   UNL     1       1.711   0.518   1.139  1.00  0.00     0.002 A 
ATOM      3  C   UNL     1       3.350  -1.248   0.753  1.00  0.00     0.119 A 
ATOM      4  C   UNL     1       2.380  -0.645   1.559  1.00  0.00     0.054 A 
ATOM      5  C   UNL     1       3.665  -0.672  -0.489  1.00  0.00     0.050 A 
ATOM      6  C   UNL     1       3.021   0.493  -0.910  1.00  0.00     0.050 A 
ATOM      7  C   UNL     1       2.044   1.103  -0.101  1.00  0.00     0.122 A 
BRANCH   3   8
ATOM      8  O   UNL     1       3.973  -2.414   1.221  1.00  0.00    -0.497 OA
ATOM      9  C   UNL     1       4.973  -3.134   0.507  1.00  0.00     0.278 C 
ENDBRANCH   3   8
BRANCH   7  10
ATOM     10  O   UNL     1       1.390   2.283  -0.494  1.00  0.00    -0.496 OA
ATOM     11  C   UNL     1       1.609   2.956  -1.729  1.00  0.00     0.278 C 
ENDBRANCH   7  10
ENDBRANCH   1   2
BRANCH   1  12
ATOM     12  C   UNL     1      -0.707   1.151   1.370  1.00  0.00    -0.021 A 
ATOM     13  C   UNL     1      -1.400  -0.036   1.000  1.00  0.00    -0.031 A 
ATOM     14  C   UNL     1      -1.310   2.392   1.124  1.00  0.00     0.118 A 
ATOM     15  C   UNL     1      -0.909  -1.372   1.515  1.00  0.00     0.045 C 
ATOM     16  C   UNL     1      -2.602   0.080   0.234  1.00  0.00     0.065 A 
ATOM     17  N   UNL     1      -2.526   2.465   0.536  1.00  0.00    -0.236 NA
ATOM     18  C   UNL     1      -3.182   1.365   0.098  1.00  0.00     0.167 A 
ATOM     19  C   UNL     1      -3.295  -0.998  -0.389  1.00  0.00     0.138 A 
ATOM     20  N   UNL     1      -4.404   1.514  -0.470  1.00  0.00    -0.193 NA
ATOM     21  N   UNL     1      -4.523  -0.780  -0.929  1.00  0.00    -0.196 NA
ATOM     22  C   UNL     1      -5.089   0.450  -0.950  1.00  0.00     0.224 A 
BRANCH  19  23
ATOM     23  N   UNL     1      -2.699  -2.279  -0.608  1.00  0.00    -0.383 N 
ATOM     24  H   UNL     1      -1.674  -2.374  -0.774  1.00  0.00     0.158 HD
ATOM     25  H   UNL     1      -3.301  -3.087  -0.880  1.00  0.00     0.158 HD
ENDBRANCH  19  23
BRANCH  22  26
ATOM     26  N   UNL     1      -6.381   0.633  -1.526  1.00  0.00    -0.368 N 
ATOM     27  H   UNL     1      -6.906  -0.181  -1.916  1.00  0.00     0.159 HD
ATOM     28  H   UNL     1      -6.814   1.582  -1.562  1.00  0.00     0.159 HD
ENDBRANCH  22  26
ENDBRANCH   1  12
TORSDOF 6
