REMARK SMILES O=C1C[C@@H](c2ccc(O)cc2)Oc2cc(O)cc(O)c21
REMARK SMILES IDX 4 1 3 2 2 3 1 4 20 5 13 6 12 7 14 8 15 9 17 10 18 11 5 12
REMARK SMILES IDX 6 13 11 14 7 15 10 16 8 17 9 18 19 20 16 22
REMARK H PARENT 9 19 19 21 16 23
REMARK Flexibility Score: inf
ROOT
ATOM      1  C   UNL     1      -0.382  -0.755  -0.234  1.00  0.00     0.211 C 
ATOM      2  C   UNL     1       0.121  -1.152   1.159  1.00  0.00     0.131 C 
ATOM      3  C   UNL     1       1.624  -1.143   1.201  1.00  0.00     0.174 C 
ATOM      4  O   UNL     1       2.196  -1.876   2.048  1.00  0.00    -0.294 OA
ATOM      5  C   UNL     1       2.388  -0.188   0.345  1.00  0.00     0.102 A 
ATOM      6  C   UNL     1       1.634   0.643  -0.515  1.00  0.00     0.138 A 
ATOM      7  O   UNL     1       0.256   0.448  -0.661  1.00  0.00    -0.484 OA
ATOM      8  C   UNL     1       2.247   1.676  -1.227  1.00  0.00     0.093 A 
ATOM      9  C   UNL     1       3.624   1.881  -1.124  1.00  0.00     0.123 A 
ATOM     10  C   UNL     1       4.391   1.038  -0.319  1.00  0.00     0.093 A 
ATOM     11  C   UNL     1       3.800  -0.010   0.399  1.00  0.00     0.133 A 
ENDROOT
BRANCH   1  12
ATOM     12  C   UNL     1      -1.881  -0.576  -0.233  1.00  0.00    -0.007 A 
ATOM     13  C   UNL     1      -2.716  -1.605  -0.698  1.00  0.00     0.011 A 
ATOM     14  C   UNL     1      -2.461   0.596   0.285  1.00  0.00     0.011 A 
ATOM     15  C   UNL     1      -4.106  -1.455  -0.670  1.00  0.00     0.046 A 
ATOM     16  C   UNL     1      -3.851   0.743   0.312  1.00  0.00     0.046 A 
ATOM     17  C   UNL     1      -4.677  -0.282  -0.167  1.00  0.00     0.115 A 
BRANCH  17  18
ATOM     18  O   UNL     1      -6.064  -0.146  -0.146  1.00  0.00    -0.508 OA
ATOM     19  H   UNL     1      -6.508   0.691   0.213  1.00  0.00     0.293 HD
ENDBRANCH  17  18
ENDBRANCH   1  12
BRANCH  11  20
ATOM     20  O   UNL     1       4.657  -0.840   1.125  1.00  0.00    -0.507 OA
ATOM     21  H   UNL     1       4.407  -1.749   1.481  1.00  0.00     0.293 HD
ENDBRANCH  11  20
BRANCH   9  22
ATOM     22  O   UNL     1       4.243   2.912  -1.826  1.00  0.00    -0.508 OA
ATOM     23  H   UNL     1       3.715   3.540  -2.421  1.00  0.00     0.293 HD
ENDBRANCH   9  22
TORSDOF 4
