REMARK SMILES NCCCCNCCCN
REMARK SMILES IDX 5 1 4 2 3 3 2 4 1 5 6 8 7 10 8 11 9 12 10 13
REMARK H PARENT 1 6 1 7 6 9 10 14 10 15
REMARK Flexibility Score: inf
ROOT
ATOM      1  C   UNL     1       0.535  -0.434  -0.015  1.00  0.00     0.081 C 
ENDROOT
BRANCH   1   2
ATOM      2  C   UNL     1       1.668  -1.361   0.438  1.00  0.00     0.017 C 
BRANCH   2   3
ATOM      3  C   UNL     1       3.008  -1.058  -0.257  1.00  0.00     0.016 C 
BRANCH   3   4
ATOM      4  C   UNL     1       3.601   0.319   0.077  1.00  0.00     0.077 C 
BRANCH   4   5
ATOM      5  N   UNL     1       3.887   0.438   1.504  1.00  0.00    -0.330 NA
ATOM      6  H   UNL     1       2.998   0.681   1.998  1.00  0.00     0.118 HD
ATOM      7  H   UNL     1       4.522   1.259   1.635  1.00  0.00     0.118 HD
ENDBRANCH   4   5
ENDBRANCH   3   4
ENDBRANCH   2   3
ENDBRANCH   1   2
BRANCH   1   8
ATOM      8  N   UNL     1      -0.738  -0.895   0.556  1.00  0.00    -0.317 NA
ATOM      9  H   UNL     1      -1.035  -1.774   0.070  1.00  0.00     0.122 HD
BRANCH   8  10
ATOM     10  C   UNL     1      -1.806   0.112   0.442  1.00  0.00     0.082 C 
BRANCH  10  11
ATOM     11  C   UNL     1      -2.359   0.221  -0.992  1.00  0.00     0.030 C 
BRANCH  11  12
ATOM     12  C   UNL     1      -3.455   1.294  -1.121  1.00  0.00     0.079 C 
BRANCH  12  13
ATOM     13  N   UNL     1      -4.693   0.918  -0.440  1.00  0.00    -0.330 NA
ATOM     14  H   UNL     1      -4.543   0.948   0.594  1.00  0.00     0.118 HD
ATOM     15  H   UNL     1      -4.955  -0.060  -0.705  1.00  0.00     0.118 HD
ENDBRANCH  12  13
ENDBRANCH  11  12
ENDBRANCH  10  11
ENDBRANCH   8  10
ENDBRANCH   1   8
TORSDOF 9
