REMARK SMILES Fc1ccc(C(OCCN2CCN(CCCc3ccccc3)CC2)c2ccc(F)cc2)cc1
REMARK SMILES IDX 10 1 11 2 12 3 13 4 23 5 24 6 9 7 8 8 7 9 6 10 5 11 1 12
REMARK SMILES IDX 2 13 3 14 33 15 4 16 32 17 25 18 26 19 31 20 27 21 30 22
REMARK SMILES IDX 28 23 29 24 14 25 15 26 16 27 17 28 18 29 22 30 19 31 21 32
REMARK SMILES IDX 20 33
REMARK H PARENT
REMARK Flexibility Score: inf
ROOT
ATOM      1  N   UNL     1      -0.442   1.163  -1.091  1.00  0.00    -0.299 NA
ATOM      2  C   UNL     1       0.813   1.677  -1.682  1.00  0.00     0.100 C 
ATOM      3  C   UNL     1       1.927   0.622  -1.618  1.00  0.00     0.100 C 
ATOM      4  N   UNL     1       2.215   0.167  -0.231  1.00  0.00    -0.301 NA
ATOM      5  C   UNL     1       1.172   0.550   0.743  1.00  0.00     0.100 C 
ATOM      6  C   UNL     1      -0.228   0.364   0.147  1.00  0.00     0.100 C 
ENDROOT
BRANCH   1   7
ATOM      7  C   UNL     1      -1.423   2.256  -0.898  1.00  0.00     0.113 C 
BRANCH   7   8
ATOM      8  C   UNL     1      -2.851   1.762  -1.146  1.00  0.00     0.177 C 
BRANCH   8   9
ATOM      9  O   UNL     1      -3.124   0.640  -0.330  1.00  0.00    -0.367 OA
BRANCH   9  10
ATOM     10  C   UNL     1      -4.518   0.455  -0.152  1.00  0.00     0.178 C 
BRANCH  10  11
ATOM     11  C   UNL     1      -5.013   1.305   0.998  1.00  0.00    -0.015 A 
ATOM     12  F   UNL     1      -6.424   3.585   4.185  1.00  0.00    -0.207 F 
ATOM     13  C   UNL     1      -5.965   2.843   3.148  1.00  0.00     0.123 A 
ATOM     14  C   UNL     1      -4.758   2.148   3.266  1.00  0.00     0.039 A 
ATOM     15  C   UNL     1      -6.702   2.767   1.962  1.00  0.00     0.039 A 
ATOM     16  C   UNL     1      -4.285   1.378   2.200  1.00  0.00     0.010 A 
ATOM     17  C   UNL     1      -6.231   2.000   0.892  1.00  0.00     0.010 A 
ENDBRANCH  10  11
BRANCH  10  18
ATOM     18  C   UNL     1      -4.812  -0.999   0.147  1.00  0.00    -0.015 A 
ATOM     19  C   UNL     1      -6.101  -1.511  -0.096  1.00  0.00     0.010 A 
ATOM     20  C   UNL     1      -3.842  -1.841   0.730  1.00  0.00     0.010 A 
ATOM     21  C   UNL     1      -6.406  -2.840   0.212  1.00  0.00     0.039 A 
ATOM     22  C   UNL     1      -4.151  -3.172   1.029  1.00  0.00     0.039 A 
ATOM     23  C   UNL     1      -5.427  -3.675   0.761  1.00  0.00     0.123 A 
ATOM     24  F   UNL     1      -5.723  -4.964   1.057  1.00  0.00    -0.207 F 
ENDBRANCH  10  18
ENDBRANCH   9  10
ENDBRANCH   8   9
ENDBRANCH   7   8
ENDBRANCH   1   7
BRANCH   4  25
ATOM     25  C   UNL     1       3.552   0.587   0.239  1.00  0.00     0.085 C 
BRANCH  25  26
ATOM     26  C   UNL     1       4.617  -0.395  -0.264  1.00  0.00     0.020 C 
BRANCH  26  27
ATOM     27  C   UNL     1       6.003  -0.040   0.284  1.00  0.00     0.037 C 
BRANCH  27  28
ATOM     28  C   UNL     1       7.018  -1.066  -0.146  1.00  0.00    -0.048 A 
ATOM     29  C   UNL     1       7.203  -2.237   0.610  1.00  0.00     0.004 A 
ATOM     30  C   UNL     1       7.736  -0.897  -1.343  1.00  0.00     0.004 A 
ATOM     31  C   UNL     1       8.104  -3.216   0.183  1.00  0.00     0.000 A 
ATOM     32  C   UNL     1       8.640  -1.878  -1.765  1.00  0.00     0.000 A 
ATOM     33  C   UNL     1       8.823  -3.037  -1.003  1.00  0.00     0.000 A 
ENDBRANCH  27  28
ENDBRANCH  26  27
ENDBRANCH  25  26
ENDBRANCH   4  25
TORSDOF 10
