REMARK SMILES OCCOCCOCCOCCOCCOCCOCCO
REMARK SMILES IDX 11 1 10 2 9 3 8 4 7 5 6 6 5 7 4 8 3 9 2 10 1 11 12 13 13 14
REMARK SMILES IDX 14 15 15 16 16 17 17 18 18 19 19 20 20 21 21 22 22 23
REMARK H PARENT 1 12 22 24
REMARK Flexibility Score: inf
ROOT
ATOM      1  C   UNL     1      -0.381  -2.025  -1.140  1.00  0.00     0.188 C 
ENDROOT
BRANCH   1   2
ATOM      2  O   UNL     1      -1.680  -2.582  -1.129  1.00  0.00    -0.377 OA
BRANCH   2   3
ATOM      3  C   UNL     1      -2.491  -1.975  -2.118  1.00  0.00     0.188 C 
BRANCH   3   4
ATOM      4  C   UNL     1      -3.331  -0.857  -1.506  1.00  0.00     0.188 C 
BRANCH   4   5
ATOM      5  O   UNL     1      -4.165  -1.400  -0.501  1.00  0.00    -0.377 OA
BRANCH   5   6
ATOM      6  C   UNL     1      -4.847  -0.373   0.196  1.00  0.00     0.188 C 
BRANCH   6   7
ATOM      7  C   UNL     1      -6.131   0.038  -0.535  1.00  0.00     0.188 C 
BRANCH   7   8
ATOM      8  O   UNL     1      -6.993   0.744   0.337  1.00  0.00    -0.377 OA
BRANCH   8   9
ATOM      9  C   UNL     1      -6.753   2.134   0.257  1.00  0.00     0.188 C 
BRANCH   9  10
ATOM     10  C   UNL     1      -7.574   2.853   1.325  1.00  0.00     0.184 C 
BRANCH  10  11
ATOM     11  O   UNL     1      -8.946   2.716   1.071  1.00  0.00    -0.394 OA
ATOM     12  H   UNL     1      -9.201   1.802   1.365  1.00  0.00     0.210 HD
ENDBRANCH  10  11
ENDBRANCH   9  10
ENDBRANCH   8   9
ENDBRANCH   7   8
ENDBRANCH   6   7
ENDBRANCH   5   6
ENDBRANCH   4   5
ENDBRANCH   3   4
ENDBRANCH   2   3
ENDBRANCH   1   2
BRANCH   1  13
ATOM     13  C   UNL     1       0.395  -2.545   0.067  1.00  0.00     0.188 C 
BRANCH  13  14
ATOM     14  O   UNL     1       1.732  -2.080   0.035  1.00  0.00    -0.377 OA
BRANCH  14  15
ATOM     15  C   UNL     1       1.868  -0.905   0.809  1.00  0.00     0.188 C 
BRANCH  15  16
ATOM     16  C   UNL     1       3.283  -0.364   0.655  1.00  0.00     0.188 C 
BRANCH  16  17
ATOM     17  O   UNL     1       3.505  -0.015  -0.701  1.00  0.00    -0.377 OA
BRANCH  17  18
ATOM     18  C   UNL     1       4.828  -0.305  -1.111  1.00  0.00     0.188 C 
BRANCH  18  19
ATOM     19  C   UNL     1       5.788   0.846  -0.780  1.00  0.00     0.188 C 
BRANCH  19  20
ATOM     20  O   UNL     1       5.893   1.051   0.615  1.00  0.00    -0.377 OA
BRANCH  20  21
ATOM     21  C   UNL     1       6.914   0.253   1.183  1.00  0.00     0.188 C 
BRANCH  21  22
ATOM     22  C   UNL     1       8.235   1.025   1.231  1.00  0.00     0.184 C 
BRANCH  22  23
ATOM     23  O   UNL     1       9.219   0.259   1.873  1.00  0.00    -0.394 OA
ATOM     24  H   UNL     1       9.041   0.329   2.846  1.00  0.00     0.210 HD
ENDBRANCH  22  23
ENDBRANCH  21  22
ENDBRANCH  20  21
ENDBRANCH  19  20
ENDBRANCH  18  19
ENDBRANCH  17  18
ENDBRANCH  16  17
ENDBRANCH  15  16
ENDBRANCH  14  15
ENDBRANCH  13  14
ENDBRANCH   1  13
TORSDOF 21
