REMARK SMILES C[C@@H]1C[C@H]2O[C@@H]2/C=C\C=C\C(=O)Cc2c(Cl)c(O)cc(O)c2C(=O)O1
REMARK SMILES IDX 1 1 2 2 3 3 4 4 5 5 6 6 7 7 8 8 9 9 10 10 11 11 12 12 25 14
REMARK SMILES IDX 23 15 24 16 22 17 14 18 20 19 15 20 19 21 16 22 17 23 13 24
REMARK SMILES IDX 21 26 18 28
REMARK H PARENT 21 27 18 29
REMARK Flexibility Score: 60.00
ROOT
ATOM      1  C   UNL     1      -1.496  -2.501  -2.099  1.00  0.00     0.053 C 
ATOM      2  C   UNL     1      -1.286  -2.526  -0.581  1.00  0.00     0.176 C 
ENDROOT
BRANCH   2   3
ATOM      3  C   UNL     1      -2.608  -2.182   0.174  1.00  0.00     0.080 C 
BRANCH   3   4
ATOM      4  C   UNL     1      -2.580  -0.730   0.653  1.00  0.00     0.155 C 
ATOM      5  O   UNL     1      -2.544   0.067  -0.517  1.00  0.00    -0.365 OA
ATOM      6  C   UNL     1      -3.602   0.306   0.359  1.00  0.00     0.170 C 
BRANCH   6   7
ATOM      7  C   UNL     1      -3.425   1.635   1.072  1.00  0.00     0.007 C 
ATOM      8  C   UNL     1      -2.334   2.438   1.033  1.00  0.00    -0.001 C 
BRANCH   8   9
ATOM      9  C   UNL     1      -1.053   2.104   0.367  1.00  0.00     0.003 C 
ATOM     10  C   UNL     1      -0.503   2.931  -0.522  1.00  0.00     0.047 C 
BRANCH  10  11
ATOM     11  C   UNL     1       0.624   2.549  -1.404  1.00  0.00     0.160 CG0
ATOM     12  O   UNL     1       1.063   3.427  -2.193  1.00  0.00    -0.294 OA
ATOM     13  G   UNL     1       1.198   1.146  -1.504  1.00  0.00     0.000 G0
ENDBRANCH  10  11
ENDBRANCH   8   9
ENDBRANCH   6   7
ENDBRANCH   3   4
ENDBRANCH   2   3
BRANCH   2  14
ATOM     14  O   UNL     1      -0.271  -1.585  -0.201  1.00  0.00    -0.459 OA
BRANCH  14  15
ATOM     15  C   UNL     1       1.091  -1.663  -0.492  1.00  0.00     0.342 C 
ATOM     16  O   UNL     1       1.556  -2.602  -1.193  1.00  0.00    -0.246 OA
BRANCH  15  17
ATOM     17  C   UNL     1       2.001  -0.675   0.122  1.00  0.00     0.107 A 
ATOM     18  C   UNL     1       2.063   0.683  -0.327  1.00  0.00     0.000 A 
ATOM     19  C   UNL     1       2.823  -1.103   1.188  1.00  0.00     0.134 A 
ATOM     20  C   UNL     1       3.068   1.526   0.226  1.00  0.00     0.087 A 
ATOM     21  C   UNL     1       3.733  -0.224   1.763  1.00  0.00     0.094 A 
ATOM     22  Cl  UNL     1       3.438   3.126  -0.418  1.00  0.00    -0.080 Cl
ATOM     23  C   UNL     1       3.872   1.074   1.281  1.00  0.00     0.138 A 
BRANCH  18  24
ATOM     24  C   UNL     1       1.198   1.146  -1.504  1.00  0.00     0.118 CG0
ATOM     25  G   UNL     1       0.624   2.549  -1.404  1.00  0.00     0.000 G0
ENDBRANCH  18  24
BRANCH  19  26
ATOM     26  O   UNL     1       2.752  -2.399   1.707  1.00  0.00    -0.507 OA
ATOM     27  H   UNL     1       2.093  -3.095   1.382  1.00  0.00     0.293 HD
ENDBRANCH  19  26
BRANCH  23  28
ATOM     28  O   UNL     1       4.826   1.923   1.842  1.00  0.00    -0.506 OA
ATOM     29  H   UNL     1       5.424   1.622   2.603  1.00  0.00     0.293 HD
ENDBRANCH  23  28
ENDBRANCH  15  17
ENDBRANCH  14  15
ENDBRANCH   2  14
TORSDOF 2
