REMARK SMILES O=C(O)C[C@H](NC(=O)CP(=O)(O)O)C(=O)O
REMARK SMILES IDX 6 1 7 2 8 3 5 5 4 6 2 7 1 8 3 9 14 11 15 12 16 13 9 15 10 16
REMARK SMILES IDX 11 17 12 18 13 20
REMARK H PARENT 6 4 3 10 16 14 12 19 13 21
REMARK Flexibility Score: inf
ROOT
ATOM      1  N   UNL     1       0.105   0.848  -0.316  1.00  0.00    -0.342 N 
ATOM      2  C   UNL     1       0.909   0.063  -1.209  1.00  0.00     0.232 C 
ATOM      3  O   UNL     1       0.382  -0.832  -1.924  1.00  0.00    -0.274 OA
ATOM      4  H   UNL     1       0.585   1.555   0.286  1.00  0.00     0.164 HD
ENDROOT
BRANCH   1   5
ATOM      5  C   UNL     1      -1.305   0.542  -0.060  1.00  0.00     0.203 C 
BRANCH   5   6
ATOM      6  C   UNL     1      -1.408  -0.546   1.022  1.00  0.00     0.159 C 
BRANCH   6   7
ATOM      7  C   UNL     1      -2.823  -1.001   1.212  1.00  0.00     0.306 C 
ATOM      8  O   UNL     1      -3.515  -0.537   2.157  1.00  0.00    -0.252 OA
BRANCH   7   9
ATOM      9  O   UNL     1      -3.383  -1.911   0.321  1.00  0.00    -0.481 OA
ATOM     10  H   UNL     1      -4.342  -2.218   0.427  1.00  0.00     0.296 HD
ENDBRANCH   7   9
ENDBRANCH   6   7
ENDBRANCH   5   6
BRANCH   5  11
ATOM     11  C   UNL     1      -2.025   1.796   0.357  1.00  0.00     0.326 C 
ATOM     12  O   UNL     1      -2.953   2.258  -0.360  1.00  0.00    -0.250 OA
BRANCH  11  13
ATOM     13  O   UNL     1      -1.665   2.451   1.531  1.00  0.00    -0.480 OA
ATOM     14  H   UNL     1      -2.142   3.296   1.822  1.00  0.00     0.296 HD
ENDBRANCH  11  13
ENDBRANCH   5  11
ENDBRANCH   1   5
BRANCH   2  15
ATOM     15  C   UNL     1       2.390   0.264  -1.257  1.00  0.00     0.228 C 
BRANCH  15  16
ATOM     16  P   UNL     1       3.185  -0.714   0.052  1.00  0.00     0.334 P 
ATOM     17  O   UNL     1       4.681  -0.497   0.001  1.00  0.00    -0.260 OA
BRANCH  16  18
ATOM     18  O   UNL     1       2.596  -0.235   1.565  1.00  0.00    -0.324 OA
ATOM     19  H   UNL     1       2.807   0.731   1.626  1.00  0.00     0.221 HD
ENDBRANCH  16  18
BRANCH  16  20
ATOM     20  O   UNL     1       2.846  -2.354  -0.189  1.00  0.00    -0.324 OA
ATOM     21  H   UNL     1       3.223  -2.809   0.605  1.00  0.00     0.221 HD
ENDBRANCH  16  20
ENDBRANCH  15  16
ENDBRANCH   2  15
TORSDOF 10
