REMARK SMILES CNC(=O)[C@H](Cc1ccccc1)NC(=O)[C@H](CC(C)C)[C@H](CSc1cccs1)C(=O)NO
REMARK SMILES IDX 16 1 14 2 13 3 15 5 5 6 6 7 7 8 8 9 12 10 9 11 11 12 10 13
REMARK SMILES IDX 3 14 4 15 2 16 1 17 17 19 18 20 19 21 20 22 21 23 22 24
REMARK SMILES IDX 23 25 24 26 25 27 28 28 26 29 27 30 29 31 30 32 31 33 32 35
REMARK H PARENT 13 4 2 18 31 34 32 36
REMARK Flexibility Score: inf
ROOT
ATOM      1  C   UNL     1       1.409  -1.638   0.483  1.00  0.00     0.092 C 
ENDROOT
BRANCH   1   2
ATOM      2  C   UNL     1       0.104  -0.894   0.678  1.00  0.00     0.224 C 
ATOM      3  N   UNL     1      -0.538  -0.244  -0.431  1.00  0.00    -0.344 N 
ATOM      4  H   UNL     1      -0.082  -0.285  -1.372  1.00  0.00     0.164 HD
ATOM      5  O   UNL     1      -0.418  -0.841   1.826  1.00  0.00    -0.275 OA
BRANCH   3   6
ATOM      6  C   UNL     1      -1.789   0.499  -0.270  1.00  0.00     0.175 C 
BRANCH   6   7
ATOM      7  C   UNL     1      -2.063   1.364  -1.514  1.00  0.00     0.070 C 
BRANCH   7   8
ATOM      8  C   UNL     1      -3.236   2.287  -1.297  1.00  0.00    -0.045 A 
ATOM      9  C   UNL     1      -4.526   1.905  -1.700  1.00  0.00     0.004 A 
ATOM     10  C   UNL     1      -3.058   3.510  -0.630  1.00  0.00     0.004 A 
ATOM     11  C   UNL     1      -5.617   2.745  -1.461  1.00  0.00     0.000 A 
ATOM     12  C   UNL     1      -4.151   4.349  -0.394  1.00  0.00     0.000 A 
ATOM     13  C   UNL     1      -5.429   3.968  -0.812  1.00  0.00     0.000 A 
ENDBRANCH   7   8
ENDBRANCH   6   7
BRANCH   6  14
ATOM     14  C   UNL     1      -2.924  -0.465  -0.029  1.00  0.00     0.242 C 
ATOM     15  O   UNL     1      -3.113  -1.419  -0.835  1.00  0.00    -0.273 OA
ATOM     16  N   UNL     1      -3.797  -0.284   1.094  1.00  0.00    -0.357 N 
ATOM     17  C   UNL     1      -4.975  -1.118   1.294  1.00  0.00     0.142 C 
ATOM     18  H   UNL     1      -3.602   0.475   1.785  1.00  0.00     0.163 HD
ENDBRANCH   6  14
ENDBRANCH   3   6
ENDBRANCH   1   2
BRANCH   1  19
ATOM     19  C   UNL     1       1.204  -3.147   0.833  1.00  0.00     0.017 C 
BRANCH  19  20
ATOM     20  C   UNL     1       0.970  -4.075  -0.384  1.00  0.00    -0.017 C 
ATOM     21  C   UNL     1      -0.245  -3.662  -1.223  1.00  0.00     0.007 C 
ATOM     22  C   UNL     1       2.224  -4.222  -1.259  1.00  0.00     0.007 C 
ENDBRANCH  19  20
ENDBRANCH   1  19
BRANCH   1  23
ATOM     23  C   UNL     1       2.549  -0.983   1.323  1.00  0.00     0.103 C 
BRANCH  23  24
ATOM     24  C   UNL     1       2.708   0.520   1.000  1.00  0.00     0.090 C 
BRANCH  24  25
ATOM     25  S   UNL     1       3.950   1.306   2.088  1.00  0.00    -0.115 SA
BRANCH  25  26
ATOM     26  C   UNL     1       3.877   2.866   1.211  1.00  0.00     0.060 A 
ATOM     27  C   UNL     1       4.671   3.225   0.132  1.00  0.00     0.027 A 
ATOM     28  S   UNL     1       2.811   4.116   1.550  1.00  0.00    -0.137 S 
ATOM     29  C   UNL     1       4.354   4.489  -0.379  1.00  0.00     0.013 A 
ATOM     30  C   UNL     1       3.331   5.129   0.310  1.00  0.00     0.066 A 
ENDBRANCH  25  26
ENDBRANCH  24  25
ENDBRANCH  23  24
BRANCH  23  31
ATOM     31  C   UNL     1       3.866  -1.688   1.074  1.00  0.00     0.248 C 
ATOM     32  O   UNL     1       4.398  -1.640  -0.070  1.00  0.00    -0.272 OA
ATOM     33  N   UNL     1       4.501  -2.431   2.118  1.00  0.00    -0.238 N 
ATOM     34  H   UNL     1       4.033  -2.548   3.042  1.00  0.00     0.198 HD
BRANCH  33  35
ATOM     35  O   UNL     1       5.684  -3.055   1.891  1.00  0.00    -0.289 OA
ATOM     36  H   UNL     1       6.374  -2.415   2.202  1.00  0.00     0.246 HD
ENDBRANCH  33  35
ENDBRANCH  23  31
ENDBRANCH   1  23
TORSDOF 13
