REMARK SMILES CN1CC[C@H](c2c(O)cc(O)c3c(=O)cc(-c4ccccc4Cl)oc23)[C@H](O)C1
REMARK SMILES IDX 1 1 2 2 3 3 4 4 5 5 26 6 28 7 27 8 6 10 7 11 25 12 9 13
REMARK SMILES IDX 12 14 24 15 10 16 13 17 16 18 15 19 14 20 8 21 11 23 17 25
REMARK SMILES IDX 18 26 22 27 19 28 21 29 23 30 20 31
REMARK H PARENT 27 9 8 22 11 24
REMARK Flexibility Score: inf
ROOT
ATOM      1  C   UNL     1      -4.392   2.707  -0.033  1.00  0.00     0.105 C 
ATOM      2  N   UNL     1      -4.053   1.374  -0.557  1.00  0.00    -0.304 NA
ATOM      3  C   UNL     1      -2.985   1.468  -1.583  1.00  0.00     0.085 C 
ATOM      4  C   UNL     1      -2.143   0.191  -1.669  1.00  0.00     0.027 C 
ATOM      5  C   UNL     1      -1.401  -0.027  -0.336  1.00  0.00     0.058 C 
ATOM      6  C   UNL     1      -2.295   0.296   0.906  1.00  0.00     0.136 C 
ATOM      7  C   UNL     1      -3.789   0.408   0.540  1.00  0.00     0.116 C 
ENDROOT
BRANCH   6   8
ATOM      8  O   UNL     1      -2.140  -0.656   1.928  1.00  0.00    -0.391 OA
ATOM      9  H   UNL     1      -1.254  -0.487   2.343  1.00  0.00     0.211 HD
ENDBRANCH   6   8
BRANCH   5  10
ATOM     10  C   UNL     1      -0.703  -1.395  -0.291  1.00  0.00     0.043 A 
ATOM     11  C   UNL     1      -1.444  -2.595  -0.325  1.00  0.00     0.126 A 
ATOM     12  C   UNL     1       0.707  -1.470  -0.183  1.00  0.00     0.149 A 
ATOM     13  C   UNL     1      -0.789  -3.828  -0.318  1.00  0.00     0.093 A 
ATOM     14  C   UNL     1       1.373  -2.728  -0.146  1.00  0.00     0.107 A 
ATOM     15  O   UNL     1       1.412  -0.344  -0.102  1.00  0.00    -0.455 OA
ATOM     16  C   UNL     1       0.601  -3.914  -0.271  1.00  0.00     0.134 A 
ATOM     17  C   UNL     1       2.775  -2.711   0.054  1.00  0.00     0.197 A 
ATOM     18  C   UNL     1       2.731  -0.302   0.037  1.00  0.00     0.140 A 
ATOM     19  C   UNL     1       3.452  -1.495   0.125  1.00  0.00     0.100 A 
ATOM     20  O   UNL     1       3.440  -3.768   0.209  1.00  0.00    -0.289 OA
BRANCH  11  21
ATOM     21  O   UNL     1      -2.836  -2.572  -0.367  1.00  0.00    -0.507 OA
ATOM     22  H   UNL     1      -3.386  -3.422  -0.391  1.00  0.00     0.293 HD
ENDBRANCH  11  21
BRANCH  16  23
ATOM     23  O   UNL     1       1.151  -5.196  -0.377  1.00  0.00    -0.507 OA
ATOM     24  H   UNL     1       2.100  -5.391  -0.660  1.00  0.00     0.293 HD
ENDBRANCH  16  23
BRANCH  18  25
ATOM     25  C   UNL     1       3.412   1.013   0.107  1.00  0.00     0.036 A 
ATOM     26  C   UNL     1       4.629   1.206  -0.575  1.00  0.00     0.013 A 
ATOM     27  C   UNL     1       2.850   2.097   0.824  1.00  0.00     0.052 A 
ATOM     28  C   UNL     1       5.273   2.445  -0.544  1.00  0.00     0.001 A 
ATOM     29  C   UNL     1       3.507   3.334   0.846  1.00  0.00     0.021 A 
ATOM     30  Cl  UNL     1       1.364   1.937   1.757  1.00  0.00    -0.084 Cl
ATOM     31  C   UNL     1       4.712   3.508   0.164  1.00  0.00     0.002 A 
ENDBRANCH  18  25
ENDBRANCH   5  10
TORSDOF 5
