REMARK SMILES Nc1nc(=O)c2c([nH]1)NC[C@@H](CNc1ccc(C(=O)N[C@@H](CCC(=O)O)C(=O)O)cc1)N2C=O
REMARK SMILES IDX 18 1 19 2 20 3 17 5 14 6 15 7 31 8 16 9 30 10 13 11 12 13
REMARK SMILES IDX 11 14 2 15 3 16 8 17 4 18 7 19 5 21 6 22 9 23 32 24 10 25
REMARK SMILES IDX 1 27 33 30 34 31 21 32 22 33 23 34 24 35 25 36 26 37 27 39
REMARK SMILES IDX 28 40 29 41
REMARK H PARENT 20 4 13 12 8 20 9 26 1 28 1 29 26 38 29 42
REMARK Flexibility Score: inf
ROOT
ATOM      1  C   UNL     1      -3.618  -0.411  -0.894  1.00  0.00     0.251 C 
ATOM      2  O   UNL     1      -4.352  -0.929  -1.779  1.00  0.00    -0.269 OA
ATOM      3  N   UNL     1      -4.202   0.420   0.127  1.00  0.00    -0.339 N 
ATOM      4  H   UNL     1      -3.572   1.000   0.725  1.00  0.00     0.164 HD
ENDROOT
BRANCH   1   5
ATOM      5  C   UNL     1      -2.156  -0.653  -0.936  1.00  0.00     0.039 A 
ATOM      6  C   UNL     1       0.629  -1.132  -1.045  1.00  0.00     0.034 A 
ATOM      7  C   UNL     1       0.005  -0.811   0.175  1.00  0.00     0.026 A 
ATOM      8  C   UNL     1      -0.158  -1.228  -2.202  1.00  0.00     0.026 A 
ATOM      9  C   UNL     1      -1.372  -0.576   0.228  1.00  0.00     0.016 A 
ATOM     10  C   UNL     1      -1.535  -0.994  -2.150  1.00  0.00     0.016 A 
BRANCH   6  11
ATOM     11  N   UNL     1       2.046  -1.380  -1.138  1.00  0.00    -0.383 N 
ATOM     12  H   UNL     1       2.425  -1.763  -2.033  1.00  0.00     0.160 HD
BRANCH  11  13
ATOM     13  C   UNL     1       3.007  -1.133  -0.061  1.00  0.00     0.140 C 
BRANCH  13  14
ATOM     14  C   UNL     1       3.228   0.378   0.155  1.00  0.00     0.129 C 
ATOM     15  C   UNL     1       8.160  -0.225   1.035  1.00  0.00     0.202 A 
ATOM     16  N   UNL     1       7.552  -0.334   2.245  1.00  0.00    -0.173 NA
ATOM     17  N   UNL     1       7.430   0.110  -0.064  1.00  0.00    -0.311 N 
ATOM     18  C   UNL     1       6.226  -0.088   2.396  1.00  0.00     0.300 A 
ATOM     19  C   UNL     1       6.097   0.372   0.037  1.00  0.00     0.136 A 
ATOM     20  H   UNL     1       7.896   0.161  -0.998  1.00  0.00     0.171 HD
ATOM     21  O   UNL     1       5.695  -0.263   3.524  1.00  0.00    -0.265 OA
ATOM     22  C   UNL     1       5.461   0.319   1.287  1.00  0.00     0.153 A 
ATOM     23  N   UNL     1       5.325   0.657  -1.138  1.00  0.00    -0.367 N 
ATOM     24  N   UNL     1       4.043   0.597   1.360  1.00  0.00    -0.300 N 
ATOM     25  C   UNL     1       3.917   1.046  -1.052  1.00  0.00     0.141 C 
ATOM     26  H   UNL     1       5.787   0.653  -2.075  1.00  0.00     0.162 HD
BRANCH  15  27
ATOM     27  N   UNL     1       9.558  -0.491   0.918  1.00  0.00    -0.369 N 
ATOM     28  H   UNL     1      10.039  -0.422  -0.005  1.00  0.00     0.159 HD
ATOM     29  H   UNL     1      10.115  -0.755   1.761  1.00  0.00     0.159 HD
ENDBRANCH  15  27
BRANCH  24  30
ATOM     30  C   UNL     1       3.443   1.261   2.487  1.00  0.00     0.345 C 
ATOM     31  O   UNL     1       4.140   1.933   3.292  1.00  0.00    -0.278 OA
ENDBRANCH  24  30
ENDBRANCH  13  14
ENDBRANCH  11  13
ENDBRANCH   6  11
ENDBRANCH   1   5
BRANCH   3  32
ATOM     32  C   UNL     1      -5.645   0.541   0.373  1.00  0.00     0.192 C 
BRANCH  32  33
ATOM     33  C   UNL     1      -6.363   1.177  -0.841  1.00  0.00     0.049 C 
BRANCH  33  34
ATOM     34  C   UNL     1      -7.720   1.809  -0.486  1.00  0.00     0.125 C 
BRANCH  34  35
ATOM     35  C   UNL     1      -8.759   0.778  -0.171  1.00  0.00     0.303 C 
ATOM     36  O   UNL     1      -9.141   0.607   1.017  1.00  0.00    -0.252 OA
BRANCH  35  37
ATOM     37  O   UNL     1      -9.289  -0.006  -1.191  1.00  0.00    -0.481 OA
ATOM     38  H   UNL     1      -9.983  -0.716  -0.993  1.00  0.00     0.296 HD
ENDBRANCH  35  37
ENDBRANCH  34  35
ENDBRANCH  33  34
ENDBRANCH  32  33
BRANCH  32  39
ATOM     39  C   UNL     1      -6.216  -0.796   0.767  1.00  0.00     0.326 C 
ATOM     40  O   UNL     1      -6.301  -1.104   1.986  1.00  0.00    -0.250 OA
BRANCH  39  41
ATOM     41  O   UNL     1      -6.612  -1.713  -0.204  1.00  0.00    -0.480 OA
ATOM     42  H   UNL     1      -6.986  -2.617   0.057  1.00  0.00     0.296 HD
ENDBRANCH  39  41
ENDBRANCH  32  39
ENDBRANCH   3  32
TORSDOF 13
