REMARK SMILES CCCCC[C@@H](/C=C/[C@@H]1[C@@H](C/C=C\CCCC(=O)O)[C@@H]2C[C@H]1OO2)OO
REMARK SMILES IDX 9 1 22 2 21 3 20 4 24 5 23 6 10 7 8 8 7 9 6 10 5 11 4 12
REMARK SMILES IDX 3 13 2 14 1 15 25 16 26 17 11 19 12 20 13 21 14 22 15 23
REMARK SMILES IDX 16 24 17 25 18 26 19 27
REMARK H PARENT 26 18 19 28
REMARK Flexibility Score: inf
ROOT
ATOM      1  C   UNL     1      -0.043   0.838   1.108  1.00  0.00     0.050 C 
ATOM      2  C   UNL     1      -0.024   0.691   2.642  1.00  0.00     0.167 C 
ATOM      3  C   UNL     1       0.108  -0.775   2.866  1.00  0.00     0.072 C 
ATOM      4  C   UNL     1       1.384  -0.772   2.104  1.00  0.00     0.164 C 
ATOM      5  O   UNL     1       2.121   0.252   2.736  1.00  0.00    -0.233 OA
ATOM      6  O   UNL     1       1.219   1.182   3.089  1.00  0.00    -0.232 OA
ATOM      7  C   UNL     1       0.951  -0.272   0.710  1.00  0.00     0.035 C 
ENDROOT
BRANCH   1   8
ATOM      8  C   UNL     1      -1.422   0.615   0.530  1.00  0.00    -0.022 C 
ATOM      9  C   UNL     1      -1.647   0.732  -0.787  1.00  0.00     0.004 C 
BRANCH   9  10
ATOM     10  C   UNL     1      -3.022   0.512  -1.375  1.00  0.00     0.179 C 
BRANCH  10  11
ATOM     11  C   UNL     1      -3.378  -0.985  -1.323  1.00  0.00     0.040 C 
BRANCH  11  12
ATOM     12  C   UNL     1      -4.741  -1.323  -1.957  1.00  0.00     0.003 C 
BRANCH  12  13
ATOM     13  C   UNL     1      -5.954  -0.657  -1.286  1.00  0.00    -0.000 C 
BRANCH  13  14
ATOM     14  C   UNL     1      -6.120  -1.066   0.184  1.00  0.00    -0.003 C 
ATOM     15  C   UNL     1      -7.433  -0.542   0.754  1.00  0.00     0.004 C 
ENDBRANCH  13  14
ENDBRANCH  12  13
ENDBRANCH  11  12
ENDBRANCH  10  11
BRANCH  10  16
ATOM     16  O   UNL     1      -3.044   0.947  -2.715  1.00  0.00    -0.232 OA
BRANCH  16  17
ATOM     17  O   UNL     1      -3.155   2.263  -2.687  1.00  0.00    -0.251 OA
ATOM     18  H   UNL     1      -2.274   2.598  -2.994  1.00  0.00     0.255 HD
ENDBRANCH  16  17
ENDBRANCH  10  16
ENDBRANCH   9  10
ENDBRANCH   1   8
BRANCH   7  19
ATOM     19  C   UNL     1       2.117   0.253  -0.147  1.00  0.00     0.034 C 
BRANCH  19  20
ATOM     20  C   UNL     1       3.061  -0.868  -0.510  1.00  0.00    -0.031 C 
ATOM     21  C   UNL     1       4.378  -0.895  -0.236  1.00  0.00    -0.031 C 
BRANCH  21  22
ATOM     22  C   UNL     1       5.142   0.204   0.460  1.00  0.00     0.027 C 
BRANCH  22  23
ATOM     23  C   UNL     1       5.417   1.404  -0.464  1.00  0.00     0.016 C 
BRANCH  23  24
ATOM     24  C   UNL     1       6.318   1.065  -1.661  1.00  0.00     0.123 C 
BRANCH  24  25
ATOM     25  C   UNL     1       7.692   0.651  -1.232  1.00  0.00     0.303 C 
ATOM     26  O   UNL     1       8.471   1.491  -0.709  1.00  0.00    -0.252 OA
BRANCH  25  27
ATOM     27  O   UNL     1       8.103  -0.666  -1.395  1.00  0.00    -0.481 OA
ATOM     28  H   UNL     1       9.023  -0.967  -1.093  1.00  0.00     0.296 HD
ENDBRANCH  25  27
ENDBRANCH  24  25
ENDBRANCH  23  24
ENDBRANCH  22  23
ENDBRANCH  21  22
ENDBRANCH  19  20
ENDBRANCH   7  19
TORSDOF 15
