REMARK SMILES CCCCC1C(=O)N(c2ccccc2)N(c2ccc(O)cc2)C1=O
REMARK SMILES IDX 5 1 6 2 7 3 8 4 15 5 23 6 24 7 4 8 3 9 2 10 1 11 9 12 10 13
REMARK SMILES IDX 14 14 11 15 13 16 12 17 16 18 17 19 22 20 18 21 21 22 19 23
REMARK SMILES IDX 20 24
REMARK H PARENT 20 25
REMARK Flexibility Score: inf
ROOT
ATOM      1  C   UNL     1       1.870  -1.264   1.471  1.00  0.00     0.172 C 
ATOM      2  C   UNL     1       1.427   0.166   1.464  1.00  0.00     0.258 C 
ATOM      3  O   UNL     1       2.088   1.116   1.963  1.00  0.00    -0.272 OA
ATOM      4  N   UNL     1       0.122   0.316   0.909  1.00  0.00    -0.213 N 
ATOM      5  N   UNL     1      -0.366  -0.955   0.577  1.00  0.00    -0.213 N 
ATOM      6  C   UNL     1       0.642  -1.911   0.902  1.00  0.00     0.258 C 
ATOM      7  O   UNL     1       0.515  -3.151   0.713  1.00  0.00    -0.272 OA
ENDROOT
BRANCH   1   8
ATOM      8  C   UNL     1       3.153  -1.515   0.645  1.00  0.00     0.024 C 
BRANCH   8   9
ATOM      9  C   UNL     1       3.022  -1.438  -0.896  1.00  0.00     0.001 C 
BRANCH   9  10
ATOM     10  C   UNL     1       2.773  -0.037  -1.482  1.00  0.00    -0.003 C 
ATOM     11  C   UNL     1       3.898   0.951  -1.178  1.00  0.00     0.004 C 
ENDBRANCH   9  10
ENDBRANCH   8   9
ENDBRANCH   1   8
BRANCH   4  12
ATOM     12  C   UNL     1      -0.654   1.526   0.914  1.00  0.00     0.067 A 
ATOM     13  C   UNL     1      -2.005   1.504   1.300  1.00  0.00     0.028 A 
ATOM     14  C   UNL     1      -0.072   2.742   0.521  1.00  0.00     0.028 A 
ATOM     15  C   UNL     1      -2.760   2.681   1.289  1.00  0.00     0.002 A 
ATOM     16  C   UNL     1      -0.830   3.917   0.512  1.00  0.00     0.002 A 
ATOM     17  C   UNL     1      -2.173   3.886   0.896  1.00  0.00     0.000 A 
ENDBRANCH   4  12
BRANCH   5  18
ATOM     18  C   UNL     1      -1.445  -1.203  -0.339  1.00  0.00     0.067 A 
ATOM     19  C   UNL     1      -2.331  -2.267  -0.112  1.00  0.00     0.032 A 
ATOM     20  C   UNL     1      -1.619  -0.392  -1.472  1.00  0.00     0.032 A 
ATOM     21  C   UNL     1      -3.383  -2.510  -1.000  1.00  0.00     0.048 A 
ATOM     22  C   UNL     1      -2.672  -0.635  -2.358  1.00  0.00     0.048 A 
ATOM     23  C   UNL     1      -3.557  -1.693  -2.126  1.00  0.00     0.115 A 
BRANCH  23  24
ATOM     24  O   UNL     1      -4.603  -1.924  -3.017  1.00  0.00    -0.508 OA
ATOM     25  H   UNL     1      -5.260  -2.682  -2.876  1.00  0.00     0.293 HD
ENDBRANCH  23  24
ENDBRANCH   5  18
TORSDOF 6
