REMARK SMILES NC(CO)(CO)CO
REMARK SMILES IDX 2 1 1 2 3 5 4 6 5 8 6 9 7 11 8 12
REMARK H PARENT 1 3 1 4 4 7 6 10 8 13
REMARK Flexibility Score: inf
ROOT
ATOM      1  C   UNL     1      -0.047   0.050   0.199  1.00  0.00     0.086 C 
ENDROOT
BRANCH   1   2
ATOM      2  N   UNL     1       0.006  -0.407   1.596  1.00  0.00    -0.319 NA
ATOM      3  H   UNL     1      -0.953  -0.361   2.013  1.00  0.00     0.119 HD
ATOM      4  H   UNL     1       0.304  -1.408   1.637  1.00  0.00     0.119 HD
ENDBRANCH   1   2
BRANCH   1   5
ATOM      5  C   UNL     1      -1.069  -0.792  -0.611  1.00  0.00     0.183 C 
BRANCH   5   6
ATOM      6  O   UNL     1      -0.756  -2.157  -0.560  1.00  0.00    -0.394 OA
ATOM      7  H   UNL     1      -1.444  -2.620  -1.106  1.00  0.00     0.210 HD
ENDBRANCH   5   6
ENDBRANCH   1   5
BRANCH   1   8
ATOM      8  C   UNL     1       1.365  -0.044  -0.436  1.00  0.00     0.183 C 
BRANCH   8   9
ATOM      9  O   UNL     1       1.845  -1.361  -0.411  1.00  0.00    -0.394 OA
ATOM     10  H   UNL     1       2.738  -1.339  -0.842  1.00  0.00     0.210 HD
ENDBRANCH   8   9
ENDBRANCH   1   8
BRANCH   1  11
ATOM     11  C   UNL     1      -0.506   1.528   0.179  1.00  0.00     0.183 C 
BRANCH  11  12
ATOM     12  O   UNL     1       0.341   2.319   0.968  1.00  0.00    -0.394 OA
ATOM     13  H   UNL     1      -0.005   3.247   0.900  1.00  0.00     0.210 HD
ENDBRANCH  11  12
ENDBRANCH   1  11
TORSDOF 7
