REMARK SMILES N[C@@H](Cc1cc(I)c(O)c(I)c1)C(=O)O
REMARK SMILES IDX 3 1 2 2 1 3 13 6 14 7 15 8 4 10 5 11 12 12 6 13 10 14 7 15
REMARK SMILES IDX 8 16 11 17 9 18
REMARK H PARENT 1 4 1 5 15 9 9 19
REMARK Flexibility Score: inf
ROOT
ATOM      1  C   UNL     1       0.861  -0.096   1.043  1.00  0.00     0.066 C 
ENDROOT
BRANCH   1   2
ATOM      2  C   UNL     1       1.857   0.489   0.027  1.00  0.00     0.166 C 
BRANCH   2   3
ATOM      3  N   UNL     1       1.882  -0.320  -1.195  1.00  0.00    -0.318 NA
ATOM      4  H   UNL     1       2.536   0.126  -1.879  1.00  0.00     0.119 HD
ATOM      5  H   UNL     1       2.257  -1.273  -0.977  1.00  0.00     0.119 HD
ENDBRANCH   2   3
BRANCH   2   6
ATOM      6  C   UNL     1       3.232   0.574   0.634  1.00  0.00     0.320 C 
ATOM      7  O   UNL     1       3.799   1.692   0.757  1.00  0.00    -0.251 OA
BRANCH   6   8
ATOM      8  O   UNL     1       3.882  -0.582   1.059  1.00  0.00    -0.480 OA
ATOM      9  H   UNL     1       4.807  -0.537   1.469  1.00  0.00     0.296 HD
ENDBRANCH   6   8
ENDBRANCH   2   6
ENDBRANCH   1   2
BRANCH   1  10
ATOM     10  C   UNL     1      -0.548  -0.071   0.507  1.00  0.00    -0.044 A 
ATOM     11  C   UNL     1      -1.083  -1.196  -0.138  1.00  0.00     0.022 A 
ATOM     12  C   UNL     1      -1.319   1.096   0.606  1.00  0.00     0.022 A 
ATOM     13  C   UNL     1      -2.379  -1.166  -0.665  1.00  0.00     0.056 A 
ATOM     14  C   UNL     1      -2.616   1.134   0.084  1.00  0.00     0.056 A 
ATOM     15  I   UNL     1      -3.092  -2.920  -1.616  1.00  0.00    -0.040 I 
ATOM     16  C   UNL     1      -3.155   0.006  -0.553  1.00  0.00     0.142 A 
ATOM     17  I   UNL     1      -3.739   2.916   0.265  1.00  0.00    -0.040 I 
BRANCH  16  18
ATOM     18  O   UNL     1      -4.452   0.075  -1.064  1.00  0.00    -0.506 OA
ATOM     19  H   UNL     1      -4.902  -0.700  -1.533  1.00  0.00     0.293 HD
ENDBRANCH  16  18
ENDBRANCH   1  10
TORSDOF 6
