REMARK SMILES O=C(O)c1ccccc1
REMARK SMILES IDX 2 1 1 2 3 3 4 5 5 6 9 7 6 8 8 9 7 10
REMARK H PARENT 3 4
REMARK Flexibility Score: inf
ROOT
ATOM      1  C   UNL     1       2.060  -0.268   0.204  1.00  0.00     0.335 C 
ATOM      2  O   UNL     1       2.574  -1.337   0.632  1.00  0.00    -0.246 OA
ENDROOT
BRANCH   1   3
ATOM      3  O   UNL     1       2.890   0.792  -0.154  1.00  0.00    -0.478 OA
ATOM      4  H   UNL     1       3.897   0.714  -0.075  1.00  0.00     0.297 HD
ENDBRANCH   1   3
BRANCH   1   5
ATOM      5  C   UNL     1       0.591  -0.139   0.082  1.00  0.00     0.059 A 
ATOM      6  C   UNL     1       0.020   1.055  -0.396  1.00  0.00     0.015 A 
ATOM      7  C   UNL     1      -0.256  -1.204   0.441  1.00  0.00     0.015 A 
ATOM      8  C   UNL     1      -1.368   1.178  -0.512  1.00  0.00     0.001 A 
ATOM      9  C   UNL     1      -1.644  -1.075   0.323  1.00  0.00     0.001 A 
ATOM     10  C   UNL     1      -2.199   0.115  -0.153  1.00  0.00     0.000 A 
ENDBRANCH   1   5
TORSDOF 2
