REMARK SMILES O=C(O)C(=O)O
REMARK SMILES IDX 2 1 1 2 3 3 4 5 5 6 6 7
REMARK H PARENT 3 4 6 8
REMARK Flexibility Score: inf
ROOT
ATOM      1  C   UNL     1      -0.677   0.116  -0.089  1.00  0.00     0.414 C 
ATOM      2  O   UNL     1      -0.853   0.390  -1.306  1.00  0.00    -0.238 OA
ENDROOT
BRANCH   1   3
ATOM      3  O   UNL     1      -1.769   0.032   0.769  1.00  0.00    -0.473 OA
ATOM      4  H   UNL     1      -2.710   0.190   0.429  1.00  0.00     0.297 HD
ENDBRANCH   1   3
BRANCH   1   5
ATOM      5  C   UNL     1       0.677  -0.116   0.422  1.00  0.00     0.414 C 
ATOM      6  O   UNL     1       0.853  -0.390   1.638  1.00  0.00    -0.238 OA
BRANCH   5   7
ATOM      7  O   UNL     1       1.769  -0.032  -0.437  1.00  0.00    -0.473 OA
ATOM      8  H   UNL     1       2.710  -0.190  -0.096  1.00  0.00     0.297 HD
ENDBRANCH   5   7
ENDBRANCH   1   5
TORSDOF 3
