REMARK SMILES O=C(O)Cc1cc(I)c(Oc2ccc(O)c(I)c2)c(I)c1
REMARK SMILES IDX 5 1 6 2 7 3 8 4 9 5 19 6 20 7 21 8 4 9 2 10 1 11 3 12 10 14
REMARK SMILES IDX 11 15 12 16 18 17 13 18 16 19 14 20 17 21 15 22
REMARK H PARENT 3 13 15 23
REMARK Flexibility Score: inf
ROOT
ATOM      1  C   UNL     1      -2.629  -0.784   0.612  1.00  0.00    -0.035 A 
ATOM      2  C   UNL     1      -1.790  -1.372  -0.347  1.00  0.00     0.023 A 
ATOM      3  C   UNL     1      -0.663  -0.690  -0.817  1.00  0.00     0.057 A 
ATOM      4  I   UNL     1       0.522  -1.611  -2.311  1.00  0.00    -0.040 I 
ATOM      5  C   UNL     1      -0.366   0.595  -0.328  1.00  0.00     0.154 A 
ATOM      6  C   UNL     1      -1.220   1.197   0.608  1.00  0.00     0.057 A 
ATOM      7  I   UNL     1      -0.819   3.137   1.346  1.00  0.00    -0.040 I 
ATOM      8  C   UNL     1      -2.345   0.510   1.075  1.00  0.00     0.023 A 
ENDROOT
BRANCH   1   9
ATOM      9  C   UNL     1      -3.858  -1.506   1.090  1.00  0.00     0.158 C 
BRANCH   9  10
ATOM     10  C   UNL     1      -5.022  -1.174   0.213  1.00  0.00     0.307 C 
ATOM     11  O   UNL     1      -5.276  -1.886  -0.795  1.00  0.00    -0.252 OA
BRANCH  10  12
ATOM     12  O   UNL     1      -5.797  -0.052   0.487  1.00  0.00    -0.481 OA
ATOM     13  H   UNL     1      -6.578   0.197  -0.107  1.00  0.00     0.296 HD
ENDBRANCH  10  12
ENDBRANCH   9  10
ENDBRANCH   1   9
BRANCH   5  14
ATOM     14  O   UNL     1       0.760   1.293  -0.779  1.00  0.00    -0.455 OA
BRANCH  14  15
ATOM     15  C   UNL     1       2.081   0.950  -0.453  1.00  0.00     0.128 A 
ATOM     16  C   UNL     1       2.386  -0.008   0.530  1.00  0.00     0.051 A 
ATOM     17  C   UNL     1       3.124   1.598  -1.123  1.00  0.00     0.065 A 
ATOM     18  C   UNL     1       3.717  -0.316   0.822  1.00  0.00     0.051 A 
ATOM     19  C   UNL     1       4.460   1.294  -0.834  1.00  0.00     0.058 A 
ATOM     20  C   UNL     1       4.759   0.327   0.147  1.00  0.00     0.129 A 
ATOM     21  I   UNL     1       5.963   2.327  -1.912  1.00  0.00    -0.040 I 
BRANCH  20  22
ATOM     22  O   UNL     1       6.073  -0.013   0.471  1.00  0.00    -0.507 OA
ATOM     23  H   UNL     1       6.876   0.409   0.025  1.00  0.00     0.293 HD
ENDBRANCH  20  22
ENDBRANCH  14  15
ENDBRANCH   5  14
TORSDOF 6
