REMARK SMILES CCOc1ccc(NC(C)=O)cc1
REMARK SMILES IDX 4 1 5 2 6 3 7 4 12 5 13 6 3 7 2 8 1 9 8 10 9 11 10 13 11 14
REMARK H PARENT 8 12
REMARK Flexibility Score: inf
ROOT
ATOM      1  C   UNL     1      -1.405   0.572  -0.734  1.00  0.00     0.119 A 
ATOM      2  C   UNL     1      -1.201   0.453   0.654  1.00  0.00     0.048 A 
ATOM      3  C   UNL     1       0.095   0.349   1.170  1.00  0.00     0.030 A 
ATOM      4  C   UNL     1       1.205   0.350   0.314  1.00  0.00     0.041 A 
ATOM      5  C   UNL     1       1.001   0.496  -1.069  1.00  0.00     0.030 A 
ATOM      6  C   UNL     1      -0.294   0.600  -1.584  1.00  0.00     0.048 A 
ENDROOT
BRANCH   1   7
ATOM      7  O   UNL     1      -2.682   0.680  -1.309  1.00  0.00    -0.494 OA
BRANCH   7   8
ATOM      8  C   UNL     1      -3.922   0.568  -0.609  1.00  0.00     0.226 C 
ATOM      9  C   UNL     1      -4.224  -0.889  -0.274  1.00  0.00     0.049 C 
ENDBRANCH   7   8
ENDBRANCH   1   7
BRANCH   4  10
ATOM     10  N   UNL     1       2.527   0.265   0.874  1.00  0.00    -0.326 N 
ATOM     11  C   UNL     1       3.639  -0.369   0.224  1.00  0.00     0.221 C 
ATOM     12  H   UNL     1       2.671   0.613   1.850  1.00  0.00     0.169 HD
ATOM     13  C   UNL     1       5.012  -0.233   0.797  1.00  0.00     0.114 C 
ATOM     14  O   UNL     1       3.460  -1.111  -0.780  1.00  0.00    -0.275 OA
ENDBRANCH   4  10
TORSDOF 3
