REMARK SMILES c1ccc(C2(N3CCCCC3)CCCCC2)cc1
REMARK SMILES IDX 5 1 12 2 13 3 14 4 15 5 16 6 6 7 9 8 8 9 10 10 7 11 11 12
REMARK SMILES IDX 4 13 3 14 17 15 2 16 18 17 1 18
REMARK H PARENT
REMARK Flexibility Score: inf
ROOT
ATOM      1  C   UNL     1      -0.565   0.356  -0.134  1.00  0.00     0.046 C 
ATOM      2  C   UNL     1      -1.333   0.444  -1.520  1.00  0.00     0.027 C 
ATOM      3  C   UNL     1      -2.797  -0.031  -1.491  1.00  0.00     0.002 C 
ATOM      4  C   UNL     1      -2.965  -1.397  -0.816  1.00  0.00     0.000 C 
ATOM      5  C   UNL     1      -2.266  -1.494   0.557  1.00  0.00     0.002 C 
ATOM      6  C   UNL     1      -1.538  -0.205   0.964  1.00  0.00     0.027 C 
ENDROOT
BRANCH   1   7
ATOM      7  N   UNL     1       0.679  -0.487  -0.237  1.00  0.00    -0.294 NA
ATOM      8  C   UNL     1       2.776  -2.583   0.084  1.00  0.00     0.003 C 
ATOM      9  C   UNL     1       1.347  -2.928  -0.363  1.00  0.00     0.016 C 
ATOM     10  C   UNL     1       2.905  -1.140   0.612  1.00  0.00     0.016 C 
ATOM     11  C   UNL     1       0.666  -1.735  -1.053  1.00  0.00     0.085 C 
ATOM     12  C   UNL     1       1.541  -0.544   0.973  1.00  0.00     0.085 C 
ENDBRANCH   1   7
BRANCH   1  13
ATOM     13  C   UNL     1      -0.099   1.795   0.209  1.00  0.00    -0.028 A 
ATOM     14  C   UNL     1      -0.400   2.450   1.431  1.00  0.00     0.005 A 
ATOM     15  C   UNL     1       0.758   2.460  -0.698  1.00  0.00     0.005 A 
ATOM     16  C   UNL     1       0.099   3.728   1.699  1.00  0.00     0.000 A 
ATOM     17  C   UNL     1       1.245   3.741  -0.425  1.00  0.00     0.000 A 
ATOM     18  C   UNL     1       0.915   4.375   0.772  1.00  0.00     0.000 A 
ENDBRANCH   1  13
TORSDOF 2
