REMARK SMILES C[C@H](CCC(=O)O)[C@H]1CC[C@H]2[C@@H]3CC[C@@H]4C[C@H](O)CC[C@]4(C)[C@H]3C[C@H](O)[C@]12C
REMARK SMILES IDX 3 1 2 2 1 3 8 4 11 5 10 6 27 7 12 8 9 9 28 10 25 11 23 12
REMARK SMILES IDX 13 13 24 14 21 15 14 16 15 17 20 18 22 19 16 20 19 21 17 22
REMARK SMILES IDX 26 23 18 25 4 27 5 28 6 29 7 30
REMARK H PARENT 26 24 18 26 7 31
REMARK Flexibility Score: inf
ROOT
ATOM      1  C   UNL     1       5.143   0.693  -0.880  1.00  0.00     0.015 C 
ENDROOT
BRANCH   1   2
ATOM      2  C   UNL     1       3.939  -0.130  -0.326  1.00  0.00    -0.010 C 
ATOM      3  C   UNL     1       4.128  -0.356   1.185  1.00  0.00     0.008 C 
BRANCH   2   4
ATOM      4  C   UNL     1       2.583   0.592  -0.660  1.00  0.00     0.001 C 
ATOM      5  C   UNL     1       0.234   0.699  -1.069  1.00  0.00     0.001 C 
ATOM      6  C   UNL     1       0.861   0.685  -2.452  1.00  0.00     0.005 C 
ATOM      7  C   UNL     1       1.236  -0.031  -0.149  1.00  0.00    -0.000 C 
ATOM      8  C   UNL     1      -1.182   0.125  -0.942  1.00  0.00    -0.004 C 
ATOM      9  C   UNL     1       2.368   0.717  -2.193  1.00  0.00     0.005 C 
ATOM     10  C   UNL     1       1.247  -1.579  -0.391  1.00  0.00     0.015 C 
ATOM     11  C   UNL     1       0.844   0.243   1.350  1.00  0.00     0.121 C 
ATOM     12  C   UNL     1      -1.732   0.430   0.474  1.00  0.00     0.001 C 
ATOM     13  C   UNL     1      -2.178   0.667  -1.999  1.00  0.00     0.004 C 
ATOM     14  C   UNL     1      -0.668   0.565   1.629  1.00  0.00     0.036 C 
ATOM     15  C   UNL     1      -3.013  -0.446   0.782  1.00  0.00    -0.026 C 
ATOM     16  C   UNL     1      -3.658   0.466  -1.572  1.00  0.00     0.004 C 
ATOM     17  C   UNL     1      -3.816  -0.699  -0.562  1.00  0.00    -0.002 C 
ATOM     18  C   UNL     1      -3.882   0.325   1.829  1.00  0.00     0.010 C 
ATOM     19  C   UNL     1      -2.613  -1.834   1.361  1.00  0.00     0.012 C 
ATOM     20  C   UNL     1      -5.294  -1.115  -0.356  1.00  0.00     0.036 C 
ATOM     21  C   UNL     1      -5.304  -0.223   1.989  1.00  0.00     0.032 C 
ATOM     22  C   UNL     1      -6.050  -0.239   0.654  1.00  0.00     0.114 C 
BRANCH  11  23
ATOM     23  O   UNL     1       1.641   1.271   1.889  1.00  0.00    -0.393 OA
ATOM     24  H   UNL     1       1.535   1.231   2.879  1.00  0.00     0.210 HD
ENDBRANCH  11  23
BRANCH  22  25
ATOM     25  O   UNL     1      -6.215   1.072   0.177  1.00  0.00    -0.393 OA
ATOM     26  H   UNL     1      -6.792   1.018  -0.628  1.00  0.00     0.210 HD
ENDBRANCH  22  25
ENDBRANCH   2   4
ENDBRANCH   1   2
BRANCH   1  27
ATOM     27  C   UNL     1       6.496  -0.049  -0.837  1.00  0.00     0.123 C 
BRANCH  27  28
ATOM     28  C   UNL     1       7.242   0.174   0.449  1.00  0.00     0.303 C 
ATOM     29  O   UNL     1       7.658  -0.812   1.118  1.00  0.00    -0.252 OA
BRANCH  28  30
ATOM     30  O   UNL     1       7.524   1.471   0.874  1.00  0.00    -0.481 OA
ATOM     31  H   UNL     1       8.040   1.634   1.731  1.00  0.00     0.296 HD
ENDBRANCH  28  30
ENDBRANCH  27  28
ENDBRANCH   1  27
TORSDOF 7
