REMARK SMILES C/C(=C\c1csc(C)n1)[C@@H]1C[C@@H]2O[C@]2(C)CCC[C@H](C)[C@H](O)[C@@H](C)C(=O)C(C)(C)[C@@H](O)CC(=O)O1
REMARK SMILES IDX 32 1 33 2 34 3 35 4 10 5 2 6 3 7 1 8 4 9 5 10 9 11 6 12 7 13
REMARK SMILES IDX 8 14 11 15 12 16 13 17 14 18 15 19 16 20 17 21 30 23 27 24
REMARK SMILES IDX 28 25 29 26 25 27 26 28 23 29 24 30 21 31 19 32 20 33 18 34
REMARK SMILES IDX 22 36 31 38
REMARK H PARENT 22 37 31 39
REMARK Flexibility Score: 50.00
ROOT
ATOM      1  C   UNL     1      -0.689   1.947  -0.640  1.00  0.00     0.155 C 
ENDROOT
BRANCH   1   2
ATOM      2  C   UNL     1       0.565   2.641  -1.118  1.00  0.00     0.309 C 
ATOM      3  O   UNL     1       0.466   3.752  -1.703  1.00  0.00    -0.252 OA
BRANCH   2   4
ATOM      4  O   UNL     1       1.842   2.058  -1.018  1.00  0.00    -0.458 OA
BRANCH   4   5
ATOM      5  C   UNL     1       2.165   0.801  -0.408  1.00  0.00     0.205 C 
BRANCH   5   6
ATOM      6  C   UNL     1       3.676   0.710  -0.268  1.00  0.00    -0.031 C 
ATOM      7  C   UNL     1       4.207   0.370   0.928  1.00  0.00     0.032 C 
ATOM      8  C   UNL     1       4.528   0.970  -1.486  1.00  0.00     0.043 C 
BRANCH   7   9
ATOM      9  C   UNL     1       5.647   0.196   1.231  1.00  0.00     0.074 A 
ATOM     10  C   UNL     1       6.103   0.031   2.538  1.00  0.00     0.095 A 
ATOM     11  N   UNL     1       6.622   0.155   0.282  1.00  0.00    -0.242 NA
ATOM     12  S   UNL     1       7.774  -0.155   2.491  1.00  0.00    -0.127 S 
ATOM     13  C   UNL     1       7.845  -0.046   0.817  1.00  0.00     0.090 A 
ATOM     14  C   UNL     1       9.100  -0.069   0.013  1.00  0.00     0.079 C 
ENDBRANCH   7   9
ENDBRANCH   5   6
BRANCH   5  15
ATOM     15  C   UNL     1       1.629  -0.375  -1.256  1.00  0.00     0.085 C 
BRANCH  15  16
ATOM     16  C   UNL     1       2.052  -1.750  -0.713  1.00  0.00     0.154 C 
ATOM     17  O   UNL     1       1.082  -2.718  -1.061  1.00  0.00    -0.366 OA
ATOM     18  C   UNL     1       1.254  -2.488   0.318  1.00  0.00     0.092 C 
ATOM     19  C   UNL     1       1.928  -3.676   1.004  1.00  0.00     0.045 C 
BRANCH  18  20
ATOM     20  C   UNL     1       0.033  -1.843   1.013  1.00  0.00     0.038 C 
BRANCH  20  21
ATOM     21  C   UNL     1      -1.329  -2.406   0.564  1.00  0.00     0.003 CG0
ATOM     22  G   UNL     1      -1.892  -1.680  -0.674  1.00  0.00     0.000 G0
ENDBRANCH  20  21
ENDBRANCH  18  20
ENDBRANCH  15  16
ENDBRANCH   5  15
ENDBRANCH   4   5
ENDBRANCH   2   4
ENDBRANCH   1   2
BRANCH   1  23
ATOM     23  C   UNL     1      -1.819   2.921  -0.216  1.00  0.00     0.138 C 
BRANCH  23  24
ATOM     24  C   UNL     1      -3.148   2.219   0.295  1.00  0.00     0.050 C 
ATOM     25  C   UNL     1      -2.873   1.448   1.608  1.00  0.00     0.022 C 
ATOM     26  C   UNL     1      -4.164   3.349   0.599  1.00  0.00     0.022 C 
BRANCH  24  27
ATOM     27  C   UNL     1      -3.752   1.295  -0.804  1.00  0.00     0.146 C 
ATOM     28  O   UNL     1      -3.436   1.520  -1.964  1.00  0.00    -0.299 OA
BRANCH  27  29
ATOM     29  C   UNL     1      -4.841   0.221  -0.608  1.00  0.00     0.082 C 
ATOM     30  C   UNL     1      -6.069   0.762   0.144  1.00  0.00     0.019 C 
BRANCH  29  31
ATOM     31  C   UNL     1      -4.357  -1.159  -0.030  1.00  0.00     0.127 C 
BRANCH  31  32
ATOM     32  C   UNL     1      -3.382  -2.005  -0.928  1.00  0.00     0.015 C 
ATOM     33  C   UNL     1      -3.704  -1.938  -2.431  1.00  0.00     0.010 C 
BRANCH  32  34
ATOM     34  C   UNL     1      -1.892  -1.680  -0.674  1.00  0.00     0.006 CG0
ATOM     35  G   UNL     1      -1.329  -2.406   0.564  1.00  0.00     0.000 G0
ENDBRANCH  32  34
ENDBRANCH  31  32
BRANCH  31  36
ATOM     36  O   UNL     1      -5.468  -1.960   0.299  1.00  0.00    -0.392 OA
ATOM     37  H   UNL     1      -5.960  -2.150  -0.542  1.00  0.00     0.210 HD
ENDBRANCH  31  36
ENDBRANCH  29  31
ENDBRANCH  27  29
ENDBRANCH  24  27
ENDBRANCH  23  24
BRANCH  23  38
ATOM     38  O   UNL     1      -1.338   3.854   0.728  1.00  0.00    -0.392 OA
ATOM     39  H   UNL     1      -0.795   3.369   1.401  1.00  0.00     0.211 HD
ENDBRANCH  23  38
ENDBRANCH   1  23
TORSDOF 4
