REMARK SMILES NC(=O)c1cccc2ncc(-c3ccc(Cl)cc3)nc12
REMARK SMILES IDX 4 1 5 2 6 3 7 4 8 5 9 6 10 7 11 8 19 9 20 10 2 11 1 12 3 15
REMARK SMILES IDX 12 16 13 17 18 18 14 19 17 20 15 21 16 22
REMARK H PARENT 1 13 1 14
REMARK Flexibility Score: inf
ROOT
ATOM      1  C   UNL     1      -2.716   0.633   0.181  1.00  0.00     0.067 A 
ATOM      2  C   UNL     1      -4.050   0.205   0.050  1.00  0.00     0.016 A 
ATOM      3  C   UNL     1      -4.345  -1.103  -0.346  1.00  0.00     0.003 A 
ATOM      4  C   UNL     1      -3.315  -2.001  -0.630  1.00  0.00     0.030 A 
ATOM      5  C   UNL     1      -1.984  -1.589  -0.530  1.00  0.00     0.090 A 
ATOM      6  N   UNL     1      -0.976  -2.449  -0.827  1.00  0.00    -0.252 NA
ATOM      7  C   UNL     1       0.325  -2.064  -0.763  1.00  0.00     0.140 A 
ATOM      8  C   UNL     1       0.645  -0.746  -0.393  1.00  0.00     0.089 A 
ATOM      9  N   UNL     1      -0.370   0.107  -0.084  1.00  0.00    -0.244 NA
ATOM     10  C   UNL     1      -1.676  -0.272  -0.129  1.00  0.00     0.102 A 
ENDROOT
BRANCH   1  11
ATOM     11  C   UNL     1      -2.445   2.022   0.619  1.00  0.00     0.250 C 
ATOM     12  N   UNL     1      -1.366   2.323   1.507  1.00  0.00    -0.366 N 
ATOM     13  H   UNL     1      -1.155   3.314   1.757  1.00  0.00     0.159 HD
ATOM     14  H   UNL     1      -0.839   1.565   1.993  1.00  0.00     0.159 HD
ATOM     15  O   UNL     1      -3.198   2.955   0.231  1.00  0.00    -0.269 OA
ENDBRANCH   1  11
BRANCH   8  16
ATOM     16  C   UNL     1       2.050  -0.268  -0.314  1.00  0.00     0.002 A 
ATOM     17  C   UNL     1       3.063  -0.825  -1.119  1.00  0.00     0.012 A 
ATOM     18  C   UNL     1       2.383   0.784   0.561  1.00  0.00     0.012 A 
ATOM     19  C   UNL     1       4.377  -0.353  -1.034  1.00  0.00     0.021 A 
ATOM     20  C   UNL     1       3.697   1.252   0.643  1.00  0.00     0.021 A 
ATOM     21  C   UNL     1       4.696   0.683  -0.152  1.00  0.00     0.041 A 
ATOM     22  Cl  UNL     1       6.344   1.273  -0.049  1.00  0.00    -0.084 Cl
ENDBRANCH   8  16
TORSDOF 2
