REMARK SMILES O=c1cc[nH]c(=O)[nH]1
REMARK SMILES IDX 7 1 6 2 5 3 4 4 3 5 2 6 1 7 8 8
REMARK H PARENT 5 9 8 10
REMARK Flexibility Score: inf
ROOT
ATOM      1  O   UNL     1       2.615  -0.097  -0.117  1.00  0.00    -0.248 OA
ATOM      2  C   UNL     1       1.356  -0.056  -0.061  1.00  0.00     0.325 A 
ATOM      3  N   UNL     1       0.637  -1.211  -0.086  1.00  0.00    -0.314 N 
ATOM      4  C   UNL     1      -0.721  -1.186  -0.026  1.00  0.00     0.093 A 
ATOM      5  C   UNL     1      -1.393   0.032   0.062  1.00  0.00     0.089 A 
ATOM      6  C   UNL     1      -0.641   1.207   0.086  1.00  0.00     0.253 A 
ATOM      7  O   UNL     1      -1.219   2.323   0.164  1.00  0.00    -0.269 OA
ATOM      8  N   UNL     1       0.718   1.144   0.024  1.00  0.00    -0.274 N 
ATOM      9  H   UNL     1       1.128  -2.132  -0.151  1.00  0.00     0.171 HD
ATOM     10  H   UNL     1       1.277   2.028   0.042  1.00  0.00     0.175 HD
ENDROOT
TORSDOF 0
