REMARK SMILES CC/C=C\C/C=C\C/C=C\C/C=C\C/C=C\C/C=C\CCC(=O)O
REMARK SMILES IDX 12 1 13 2 11 3 10 4 9 5 8 6 7 7 6 8 5 9 4 10 3 11 2 12 1 13
REMARK SMILES IDX 14 14 15 15 16 16 17 17 18 18 19 19 20 20 21 21 22 22 23 23
REMARK SMILES IDX 24 24
REMARK H PARENT 24 25
REMARK Flexibility Score: inf
ROOT
ATOM      1  C   UNL     1       0.249  -2.054  -2.455  1.00  0.00    -0.027 C 
ATOM      2  C   UNL     1      -0.951  -2.643  -2.283  1.00  0.00    -0.027 C 
ENDROOT
BRANCH   1   3
ATOM      3  C   UNL     1       0.518  -0.580  -2.270  1.00  0.00     0.054 C 
BRANCH   3   4
ATOM      4  C   UNL     1       0.488  -0.178  -0.817  1.00  0.00    -0.027 C 
ATOM      5  C   UNL     1       1.442  -0.485   0.083  1.00  0.00    -0.027 C 
BRANCH   5   6
ATOM      6  C   UNL     1       2.711  -1.238  -0.234  1.00  0.00     0.054 C 
BRANCH   6   7
ATOM      7  C   UNL     1       3.702  -0.369  -0.968  1.00  0.00    -0.027 C 
ATOM      8  C   UNL     1       4.420   0.614  -0.394  1.00  0.00    -0.027 C 
BRANCH   8   9
ATOM      9  C   UNL     1       4.342   0.952   1.074  1.00  0.00     0.054 C 
BRANCH   9  10
ATOM     10  C   UNL     1       5.263   2.100   1.404  1.00  0.00    -0.027 C 
ATOM     11  C   UNL     1       6.491   1.980   1.945  1.00  0.00    -0.031 C 
BRANCH  11  12
ATOM     12  C   UNL     1       7.137   0.679   2.355  1.00  0.00     0.023 C 
ATOM     13  C   UNL     1       7.644  -0.109   1.149  1.00  0.00     0.008 C 
ENDBRANCH  11  12
ENDBRANCH   9  10
ENDBRANCH   8   9
ENDBRANCH   6   7
ENDBRANCH   5   6
ENDBRANCH   3   4
ENDBRANCH   1   3
BRANCH   2  14
ATOM     14  C   UNL     1      -2.208  -1.916  -1.875  1.00  0.00     0.054 C 
BRANCH  14  15
ATOM     15  C   UNL     1      -2.739  -1.061  -2.999  1.00  0.00    -0.027 C 
ATOM     16  C   UNL     1      -3.741  -0.176  -2.844  1.00  0.00    -0.027 C 
BRANCH  16  17
ATOM     17  C   UNL     1      -4.445   0.048  -1.526  1.00  0.00     0.054 C 
BRANCH  17  18
ATOM     18  C   UNL     1      -5.441   1.180  -1.612  1.00  0.00    -0.027 C 
ATOM     19  C   UNL     1      -6.359   1.448  -0.664  1.00  0.00    -0.030 C 
BRANCH  19  20
ATOM     20  C   UNL     1      -6.574   0.632   0.590  1.00  0.00     0.039 C 
BRANCH  20  21
ATOM     21  C   UNL     1      -5.524   0.951   1.663  1.00  0.00     0.126 C 
BRANCH  21  22
ATOM     22  C   UNL     1      -5.832   0.222   2.936  1.00  0.00     0.303 C 
ATOM     23  O   UNL     1      -5.688  -1.030   2.999  1.00  0.00    -0.252 OA
BRANCH  22  24
ATOM     24  O   UNL     1      -6.295   0.926   4.044  1.00  0.00    -0.481 OA
ATOM     25  H   UNL     1      -6.497   0.447   4.916  1.00  0.00     0.296 HD
ENDBRANCH  22  24
ENDBRANCH  21  22
ENDBRANCH  20  21
ENDBRANCH  19  20
ENDBRANCH  17  18
ENDBRANCH  16  17
ENDBRANCH  14  15
ENDBRANCH   2  14
TORSDOF 15
