REMARK SMILES COC(=O)C1=CCCN(C)C1
REMARK SMILES IDX 3 1 4 2 2 3 1 4 5 5 6 6 11 7 7 8 9 9 8 10 10 11
REMARK H PARENT
REMARK Flexibility Score: inf
ROOT
ATOM      1  C   UNL     1       1.964  -0.289  -0.018  1.00  0.00     0.334 C 
ATOM      2  O   UNL     1       2.324  -1.466   0.263  1.00  0.00    -0.247 OA
ENDROOT
BRANCH   1   3
ATOM      3  O   UNL     1       2.926   0.689  -0.296  1.00  0.00    -0.466 OA
ATOM      4  C   UNL     1       4.323   0.419  -0.277  1.00  0.00     0.282 C 
ENDBRANCH   1   3
BRANCH   1   5
ATOM      5  C   UNL     1       0.523   0.051  -0.053  1.00  0.00     0.047 C 
ATOM      6  C   UNL     1       0.134   1.325  -0.242  1.00  0.00    -0.013 C 
ATOM      7  C   UNL     1      -0.499  -1.026   0.251  1.00  0.00     0.127 C 
ATOM      8  C   UNL     1      -1.314   1.723  -0.321  1.00  0.00     0.043 C 
ATOM      9  N   UNL     1      -1.842  -0.667  -0.248  1.00  0.00    -0.302 NA
ATOM     10  C   UNL     1      -2.232   0.654   0.272  1.00  0.00     0.088 C 
ATOM     11  C   UNL     1      -2.821  -1.683   0.167  1.00  0.00     0.105 C 
ENDBRANCH   1   5
TORSDOF 2
