REMARK SMILES Cc1cc(N)c2ccccc2[n+]1CCCCCCCCCC[n+]1c(C)cc(N)c2ccccc21
REMARK SMILES IDX 17 1 16 2 15 3 14 4 13 5 12 6 1 7 2 8 3 9 4 10 11 11 6 12
REMARK SMILES IDX 10 13 7 14 9 15 8 16 5 17 18 20 19 21 20 22 21 23 22 24
REMARK SMILES IDX 23 25 24 26 34 27 25 28 26 29 29 30 33 31 27 32 30 33 32 34
REMARK SMILES IDX 31 35 28 36
REMARK H PARENT 5 18 5 19 28 37 28 38
REMARK Flexibility Score: inf
ROOT
ATOM      1  C   UNL     1       0.801  -0.431   0.603  1.00  0.00     0.000 C 
ENDROOT
BRANCH   1   2
ATOM      2  C   UNL     1       1.365   0.499  -0.486  1.00  0.00     0.000 C 
BRANCH   2   3
ATOM      3  C   UNL     1       2.412   1.485   0.076  1.00  0.00     0.007 C 
BRANCH   3   4
ATOM      4  C   UNL     1       3.858   1.126  -0.304  1.00  0.00     0.073 C 
BRANCH   4   5
ATOM      5  C   UNL     1       4.343  -0.174   0.357  1.00  0.00     0.357 C 
BRANCH   5   6
ATOM      6  N   UNL     1       5.792  -0.381   0.113  1.00  0.00    -0.196 N 
ATOM      7  C   UNL     1       5.213  -1.812  -1.906  1.00  0.00     0.124 C 
ATOM      8  C   UNL     1       6.196  -1.167  -0.950  1.00  0.00     0.180 A 
ATOM      9  C   UNL     1       7.550  -1.446  -1.148  1.00  0.00     0.100 A 
ATOM     10  C   UNL     1       8.523  -0.913  -0.312  1.00  0.00     0.052 A 
ATOM     11  C   UNL     1       6.743   0.225   0.924  1.00  0.00     0.214 A 
ATOM     12  C   UNL     1       8.134  -0.035   0.721  1.00  0.00     0.069 A 
ATOM     13  C   UNL     1       6.381   1.126   1.962  1.00  0.00     0.080 A 
ATOM     14  C   UNL     1       9.089   0.612   1.536  1.00  0.00     0.017 A 
ATOM     15  C   UNL     1       7.346   1.733   2.763  1.00  0.00     0.007 A 
ATOM     16  C   UNL     1       8.693   1.479   2.550  1.00  0.00     0.001 A 
BRANCH  10  17
ATOM     17  N   UNL     1       9.891  -1.290  -0.536  1.00  0.00    -0.398 N 
ATOM     18  H   UNL     1      10.630  -1.201   0.193  1.00  0.00     0.156 HD
ATOM     19  H   UNL     1      10.159  -1.807  -1.403  1.00  0.00     0.156 HD
ENDBRANCH  10  17
ENDBRANCH   5   6
ENDBRANCH   4   5
ENDBRANCH   3   4
ENDBRANCH   2   3
ENDBRANCH   1   2
BRANCH   1  20
ATOM     20  C   UNL     1      -0.253  -1.412   0.046  1.00  0.00     0.000 C 
BRANCH  20  21
ATOM     21  C   UNL     1      -1.702  -1.023   0.385  1.00  0.00     0.000 C 
BRANCH  21  22
ATOM     22  C   UNL     1      -2.150   0.271  -0.312  1.00  0.00     0.007 C 
BRANCH  22  23
ATOM     23  C   UNL     1      -3.634   0.586  -0.069  1.00  0.00     0.073 C 
BRANCH  23  24
ATOM     24  C   UNL     1      -4.574  -0.285  -0.920  1.00  0.00     0.357 C 
BRANCH  24  25
ATOM     25  N   UNL     1      -5.989   0.110  -0.706  1.00  0.00    -0.196 N 
ATOM     26  C   UNL     1      -6.585   0.999  -1.581  1.00  0.00     0.180 A 
ATOM     27  C   UNL     1      -6.710  -0.388   0.373  1.00  0.00     0.214 A 
ATOM     28  C   UNL     1      -5.846   1.603  -2.757  1.00  0.00     0.124 C 
ATOM     29  C   UNL     1      -7.927   1.354  -1.423  1.00  0.00     0.100 A 
ATOM     30  C   UNL     1      -8.085  -0.039   0.543  1.00  0.00     0.069 A 
ATOM     31  C   UNL     1      -6.120  -1.251   1.336  1.00  0.00     0.080 A 
ATOM     32  C   UNL     1      -8.682   0.858  -0.367  1.00  0.00     0.052 A 
ATOM     33  C   UNL     1      -8.821  -0.611   1.605  1.00  0.00     0.017 A 
ATOM     34  C   UNL     1      -6.865  -1.777   2.389  1.00  0.00     0.007 A 
ATOM     35  C   UNL     1      -8.212  -1.469   2.515  1.00  0.00     0.001 A 
BRANCH  32  36
ATOM     36  N   UNL     1     -10.040   1.309  -0.236  1.00  0.00    -0.398 N 
ATOM     37  H   UNL     1     -10.573   1.258   0.658  1.00  0.00     0.156 HD
ATOM     38  H   UNL     1     -10.494   1.841  -1.012  1.00  0.00     0.156 HD
ENDBRANCH  32  36
ENDBRANCH  24  25
ENDBRANCH  23  24
ENDBRANCH  22  23
ENDBRANCH  21  22
ENDBRANCH  20  21
ENDBRANCH   1  20
TORSDOF 13
