REMARK SMILES COc1cc2c(cc1OC)CN(CCc1ccc(NC(=O)c3cccc4c(=O)c5cccc(OC)c5[nH]c34)cc1)CC2
REMARK SMILES IDX 18 1 17 2 16 3 15 4 40 5 39 6 19 7 20 8 21 9 22 11 33 12
REMARK SMILES IDX 32 13 36 14 31 15 29 16 37 17 30 18 27 19 38 20 26 22 28 23
REMARK SMILES IDX 25 24 23 25 24 26 34 27 35 28 14 29 13 30 12 31 41 32 11 33
REMARK SMILES IDX 42 34 6 35 5 36 7 37 4 38 8 39 3 40 9 41 10 42 2 43 1 44
REMARK H PARENT 19 10 37 21
REMARK Flexibility Score: inf
ROOT
ATOM      1  C   UNL     1      -1.397   0.020   0.274  1.00  0.00     0.041 A 
ATOM      2  C   UNL     1      -0.913  -1.257  -0.059  1.00  0.00     0.026 A 
ATOM      3  C   UNL     1       0.132  -1.404  -0.974  1.00  0.00     0.006 A 
ATOM      4  C   UNL     1       0.701  -0.275  -1.586  1.00  0.00    -0.047 A 
ATOM      5  C   UNL     1       0.219   1.003  -1.258  1.00  0.00     0.006 A 
ATOM      6  C   UNL     1      -0.810   1.151  -0.322  1.00  0.00     0.026 A 
ENDROOT
BRANCH   1   7
ATOM      7  N   UNL     1      -2.441   0.135   1.258  1.00  0.00    -0.322 N 
ATOM      8  C   UNL     1      -3.519   1.090   1.203  1.00  0.00     0.257 C 
ATOM      9  O   UNL     1      -3.509   2.043   0.376  1.00  0.00    -0.269 OA
ATOM     10  H   UNL     1      -2.536  -0.653   1.943  1.00  0.00     0.170 HD
BRANCH   8  11
ATOM     11  C   UNL     1      -4.690   0.915   2.083  1.00  0.00     0.064 A 
ATOM     12  C   UNL     1      -7.497  -0.328  -1.659  1.00  0.00     0.143 A 
ATOM     13  C   UNL     1      -8.730  -0.801  -2.152  1.00  0.00     0.049 A 
ATOM     14  C   UNL     1      -7.347  -0.098  -0.272  1.00  0.00     0.092 A 
ATOM     15  C   UNL     1      -9.799  -1.033  -1.288  1.00  0.00     0.005 A 
ATOM     16  C   UNL     1      -8.438  -0.340   0.602  1.00  0.00     0.050 A 
ATOM     17  N   UNL     1      -6.155   0.335   0.234  1.00  0.00    -0.351 N 
ATOM     18  C   UNL     1      -9.661  -0.802   0.077  1.00  0.00     0.014 A 
ATOM     19  C   UNL     1      -8.275  -0.121   1.982  1.00  0.00     0.197 A 
ATOM     20  C   UNL     1      -5.961   0.534   1.576  1.00  0.00     0.063 A 
ATOM     21  H   UNL     1      -5.365   0.499  -0.430  1.00  0.00     0.167 HD
ATOM     22  C   UNL     1      -7.032   0.310   2.480  1.00  0.00     0.047 A 
ATOM     23  O   UNL     1      -9.237  -0.320   2.773  1.00  0.00    -0.288 OA
ATOM     24  C   UNL     1      -6.823   0.494   3.861  1.00  0.00     0.014 A 
ATOM     25  C   UNL     1      -4.508   1.065   3.464  1.00  0.00     0.016 A 
ATOM     26  C   UNL     1      -5.571   0.868   4.344  1.00  0.00     0.002 A 
BRANCH  12  27
ATOM     27  O   UNL     1      -6.412  -0.081  -2.516  1.00  0.00    -0.495 OA
ATOM     28  C   UNL     1      -6.370  -0.440  -3.893  1.00  0.00     0.278 C 
ENDBRANCH  12  27
ENDBRANCH   8  11
ENDBRANCH   1   7
BRANCH   4  29
ATOM     29  C   UNL     1       1.878  -0.427  -2.520  1.00  0.00     0.051 C 
BRANCH  29  30
ATOM     30  C   UNL     1       3.184   0.036  -1.862  1.00  0.00     0.089 C 
BRANCH  30  31
ATOM     31  N   UNL     1       3.400  -0.688  -0.583  1.00  0.00    -0.298 NA
ATOM     32  C   UNL     1       3.342   0.190   0.605  1.00  0.00     0.089 C 
ATOM     33  C   UNL     1       4.620  -1.517  -0.576  1.00  0.00     0.120 C 
ATOM     34  C   UNL     1       4.522   1.177   0.667  1.00  0.00     0.051 C 
ATOM     35  C   UNL     1       5.875  -0.688  -0.416  1.00  0.00    -0.027 A 
ATOM     36  C   UNL     1       5.829   0.563   0.224  1.00  0.00    -0.038 A 
ATOM     37  C   UNL     1       7.110  -1.214  -0.822  1.00  0.00     0.055 A 
ATOM     38  C   UNL     1       7.011   1.298   0.391  1.00  0.00     0.054 A 
ATOM     39  C   UNL     1       8.299  -0.482  -0.640  1.00  0.00     0.161 A 
ATOM     40  C   UNL     1       8.247   0.783  -0.039  1.00  0.00     0.161 A 
BRANCH  39  41
ATOM     41  O   UNL     1       9.552  -0.983  -1.030  1.00  0.00    -0.493 OA
ATOM     42  C   UNL     1       9.776  -2.286  -1.563  1.00  0.00     0.278 C 
ENDBRANCH  39  41
BRANCH  40  43
ATOM     43  O   UNL     1       9.446   1.495   0.120  1.00  0.00    -0.493 OA
ATOM     44  C   UNL     1       9.593   2.666   0.912  1.00  0.00     0.278 C 
ENDBRANCH  40  43
ENDBRANCH  30  31
ENDBRANCH  29  30
ENDBRANCH   4  29
TORSDOF 8
