REMARK SMILES CC/C(=C(\c1ccc(O)cc1)c1ccc(OCCN(C)C)cc1)c1ccccc1
REMARK SMILES IDX 12 1 13 2 14 3 15 4 22 5 23 6 4 7 3 8 2 9 1 10 24 11 25 12
REMARK SMILES IDX 29 13 26 14 28 15 27 16 5 17 6 18 11 19 7 20 10 21 8 22 9 23
REMARK SMILES IDX 16 25 17 26 18 27 19 28 20 29 21 30
REMARK H PARENT 9 24
REMARK Flexibility Score: inf
ROOT
ATOM      1  C   UNL     1      -0.679   0.500   0.192  1.00  0.00    -0.017 A 
ATOM      2  C   UNL     1       0.170   1.202   1.061  1.00  0.00     0.012 A 
ATOM      3  C   UNL     1       1.530   1.333   0.766  1.00  0.00     0.047 A 
ATOM      4  C   UNL     1       2.062   0.775  -0.402  1.00  0.00     0.119 A 
ATOM      5  C   UNL     1       1.208   0.088  -1.285  1.00  0.00     0.047 A 
ATOM      6  C   UNL     1      -0.152  -0.043  -0.992  1.00  0.00     0.012 A 
ENDROOT
BRANCH   1   7
ATOM      7  C   UNL     1      -2.124   0.366   0.511  1.00  0.00    -0.007 C 
ATOM      8  C   UNL     1      -2.746  -0.848   0.522  1.00  0.00    -0.033 C 
BRANCH   8   9
ATOM      9  C   UNL     1      -4.256  -0.978   0.624  1.00  0.00     0.033 C 
ATOM     10  C   UNL     1      -4.954  -0.556  -0.669  1.00  0.00     0.009 C 
ENDBRANCH   8   9
BRANCH   8  11
ATOM     11  C   UNL     1      -1.961  -2.110   0.451  1.00  0.00    -0.022 A 
ATOM     12  C   UNL     1      -0.942  -2.365   1.387  1.00  0.00     0.008 A 
ATOM     13  C   UNL     1      -2.238  -3.071  -0.536  1.00  0.00     0.008 A 
ATOM     14  C   UNL     1      -0.200  -3.547   1.320  1.00  0.00     0.001 A 
ATOM     15  C   UNL     1      -1.494  -4.254  -0.599  1.00  0.00     0.001 A 
ATOM     16  C   UNL     1      -0.475  -4.490   0.326  1.00  0.00     0.000 A 
ENDBRANCH   8  11
BRANCH   7  17
ATOM     17  C   UNL     1      -2.857   1.625   0.783  1.00  0.00    -0.017 A 
ATOM     18  C   UNL     1      -3.386   1.882   2.058  1.00  0.00     0.012 A 
ATOM     19  C   UNL     1      -2.955   2.607  -0.215  1.00  0.00     0.012 A 
ATOM     20  C   UNL     1      -4.041   3.089   2.318  1.00  0.00     0.047 A 
ATOM     21  C   UNL     1      -3.612   3.814   0.047  1.00  0.00     0.047 A 
ATOM     22  C   UNL     1      -4.159   4.056   1.314  1.00  0.00     0.115 A 
BRANCH  22  23
ATOM     23  O   UNL     1      -4.816   5.254   1.587  1.00  0.00    -0.508 OA
ATOM     24  H   UNL     1      -4.916   5.975   0.882  1.00  0.00     0.293 HD
ENDBRANCH  22  23
ENDBRANCH   7  17
ENDBRANCH   1   7
BRANCH   4  25
ATOM     25  O   UNL     1       3.434   0.927  -0.646  1.00  0.00    -0.492 OA
BRANCH  25  26
ATOM     26  C   UNL     1       4.119   0.381  -1.771  1.00  0.00     0.245 C 
BRANCH  26  27
ATOM     27  C   UNL     1       5.618   0.726  -1.704  1.00  0.00     0.125 C 
BRANCH  27  28
ATOM     28  N   UNL     1       6.397  -0.055  -0.715  1.00  0.00    -0.306 NA
ATOM     29  C   UNL     1       5.947   0.142   0.672  1.00  0.00     0.105 C 
ATOM     30  C   UNL     1       6.488  -1.485  -1.049  1.00  0.00     0.105 C 
ENDBRANCH  27  28
ENDBRANCH  26  27
ENDBRANCH  25  26
ENDBRANCH   4  25
TORSDOF 9
