REMARK SMILES CCN(CC)C(=O)Nc1ccc(OCC(O)CNC(C)(C)C)c(C(C)=O)c1
REMARK SMILES IDX 14 1 13 2 12 3 9 4 10 5 27 6 11 7 23 8 8 9 3 10 6 11 7 12
REMARK SMILES IDX 2 14 1 15 4 16 5 17 24 18 25 19 26 20 15 21 16 22 17 24
REMARK SMILES IDX 18 25 19 27 20 28 21 29 22 30
REMARK H PARENT 8 13 16 23 18 26
REMARK Flexibility Score: inf
ROOT
ATOM      1  C   UNL     1      -2.341   1.936  -0.847  1.00  0.00     0.262 C 
ENDROOT
BRANCH   1   2
ATOM      2  O   UNL     1      -1.142   1.949  -1.625  1.00  0.00    -0.490 OA
BRANCH   2   3
ATOM      3  C   UNL     1       0.115   1.445  -1.240  1.00  0.00     0.130 A 
ATOM      4  C   UNL     1       2.630   0.385  -0.505  1.00  0.00     0.043 A 
ATOM      5  C   UNL     1       1.643   0.603   0.464  1.00  0.00     0.030 A 
ATOM      6  C   UNL     1       2.351   0.687  -1.844  1.00  0.00     0.041 A 
ATOM      7  C   UNL     1       0.405   1.133   0.104  1.00  0.00     0.049 A 
ATOM      8  C   UNL     1       1.111   1.237  -2.226  1.00  0.00     0.061 A 
BRANCH   4   9
ATOM      9  N   UNL     1       3.900  -0.195  -0.159  1.00  0.00    -0.308 N 
ATOM     10  N   UNL     1       5.527  -0.933   1.600  1.00  0.00    -0.325 N 
ATOM     11  C   UNL     1       4.547   0.009   1.108  1.00  0.00     0.321 C 
ATOM     12  O   UNL     1       4.276   1.040   1.786  1.00  0.00    -0.248 OA
ATOM     13  H   UNL     1       4.410  -0.732  -0.895  1.00  0.00     0.171 HD
BRANCH  10  14
ATOM     14  C   UNL     1       5.599  -2.297   1.057  1.00  0.00     0.118 C 
ATOM     15  C   UNL     1       6.735  -2.412   0.044  1.00  0.00     0.027 C 
ENDBRANCH  10  14
BRANCH  10  16
ATOM     16  C   UNL     1       6.409  -0.560   2.716  1.00  0.00     0.118 C 
ATOM     17  C   UNL     1       7.431   0.485   2.276  1.00  0.00     0.027 C 
ENDBRANCH  10  16
ENDBRANCH   4   9
BRANCH   8  18
ATOM     18  C   UNL     1       0.888   1.546  -3.665  1.00  0.00     0.163 C 
ATOM     19  C   UNL     1      -0.037   2.633  -4.123  1.00  0.00     0.093 C 
ATOM     20  O   UNL     1       1.498   0.874  -4.542  1.00  0.00    -0.294 OA
ENDBRANCH   8  18
ENDBRANCH   2   3
ENDBRANCH   1   2
BRANCH   1  21
ATOM     21  C   UNL     1      -3.056   0.578  -0.966  1.00  0.00     0.165 C 
BRANCH  21  22
ATOM     22  O   UNL     1      -2.205  -0.473  -0.581  1.00  0.00    -0.388 OA
ATOM     23  H   UNL     1      -2.042  -0.389   0.395  1.00  0.00     0.211 HD
ENDBRANCH  21  22
BRANCH  21  24
ATOM     24  C   UNL     1      -4.360   0.564  -0.142  1.00  0.00     0.116 C 
BRANCH  24  25
ATOM     25  N   UNL     1      -5.158  -0.639  -0.443  1.00  0.00    -0.309 NA
ATOM     26  H   UNL     1      -4.533  -1.480  -0.413  1.00  0.00     0.123 HD
BRANCH  25  27
ATOM     27  C   UNL     1      -6.313  -0.877   0.461  1.00  0.00     0.010 C 
ATOM     28  C   UNL     1      -7.177   0.393   0.641  1.00  0.00     0.027 C 
ATOM     29  C   UNL     1      -5.846  -1.391   1.843  1.00  0.00     0.027 C 
ATOM     30  C   UNL     1      -7.192  -1.963  -0.190  1.00  0.00     0.027 C 
ENDBRANCH  25  27
ENDBRANCH  24  25
ENDBRANCH  21  24
ENDBRANCH   1  21
TORSDOF 11
