REMARK SMILES CC1CC(OC(=O)C(O)c2ccccc2)CC(C)(C)C1
REMARK SMILES IDX 6 1 7 2 5 3 4 4 1 5 2 6 3 7 20 8 17 9 16 10 18 11 19 12 8 13
REMARK SMILES IDX 9 14 10 16 11 17 15 18 12 19 14 20 13 21
REMARK H PARENT 9 15
REMARK Flexibility Score: inf
ROOT
ATOM      1  C   UNL     1       1.325  -0.670   1.929  1.00  0.00     0.339 C 
ATOM      2  O   UNL     1       1.019   0.267   2.717  1.00  0.00    -0.249 OA
ENDROOT
BRANCH   1   3
ATOM      3  O   UNL     1       0.396  -1.158   1.003  1.00  0.00    -0.460 OA
BRANCH   3   4
ATOM      4  C   UNL     1      -0.882  -0.564   0.781  1.00  0.00     0.177 C 
ATOM      5  C   UNL     1      -3.982  -1.964  -1.103  1.00  0.00     0.008 C 
ATOM      6  C   UNL     1      -3.132  -0.957  -0.320  1.00  0.00    -0.010 C 
ATOM      7  C   UNL     1      -1.754  -1.557   0.004  1.00  0.00     0.048 C 
ATOM      8  C   UNL     1      -2.978   0.353  -1.121  1.00  0.00     0.010 C 
ATOM      9  C   UNL     1      -2.069   1.397  -0.414  1.00  0.00    -0.032 C 
ATOM     10  C   UNL     1      -0.716   0.745  -0.017  1.00  0.00     0.051 C 
ATOM     11  C   UNL     1      -1.788   2.552  -1.398  1.00  0.00     0.011 C 
ATOM     12  C   UNL     1      -2.776   1.993   0.826  1.00  0.00     0.011 C 
ENDBRANCH   3   4
ENDBRANCH   1   3
BRANCH   1  13
ATOM     13  C   UNL     1       2.716  -1.230   1.944  1.00  0.00     0.254 C 
BRANCH  13  14
ATOM     14  O   UNL     1       2.681  -2.621   1.761  1.00  0.00    -0.377 OA
ATOM     15  H   UNL     1       2.333  -3.013   2.605  1.00  0.00     0.212 HD
ENDBRANCH  13  14
BRANCH  13  16
ATOM     16  C   UNL     1       3.523  -0.590   0.840  1.00  0.00    -0.008 A 
ATOM     17  C   UNL     1       4.456   0.419   1.138  1.00  0.00     0.007 A 
ATOM     18  C   UNL     1       3.310  -0.950  -0.504  1.00  0.00     0.007 A 
ATOM     19  C   UNL     1       5.177   1.040   0.113  1.00  0.00     0.000 A 
ATOM     20  C   UNL     1       4.032  -0.325  -1.525  1.00  0.00     0.000 A 
ATOM     21  C   UNL     1       4.966   0.667  -1.217  1.00  0.00     0.000 A 
ENDBRANCH  13  16
ENDBRANCH   1  13
TORSDOF 5
