REMARK SMILES C[C@]12CC[C@@H]3c4ccc(O)cc4CC[C@H]3[C@@H]1C[C@@H](O)[C@@H]2O
REMARK SMILES IDX 16 1 17 2 18 3 20 4 2 5 1 6 3 7 4 8 5 9 6 10 12 11 13 12
REMARK SMILES IDX 14 13 15 14 11 15 9 16 8 17 7 18 19 19 21 21 10 23
REMARK H PARENT 19 20 21 22 10 24
REMARK Flexibility Score: inf
ROOT
ATOM      1  C   UNL     1      -1.437  -0.264  -0.517  1.00  0.00     0.004 C 
ATOM      2  C   UNL     1      -2.387   0.306  -1.563  1.00  0.00     0.039 C 
ATOM      3  C   UNL     1      -3.790   0.060  -0.960  1.00  0.00     0.144 C 
ATOM      4  C   UNL     1      -3.569  -0.434   0.496  1.00  0.00     0.149 C 
ATOM      5  C   UNL     1      -2.129   0.008   0.828  1.00  0.00    -0.001 C 
ATOM      6  C   UNL     1      -2.125   1.512   1.256  1.00  0.00     0.014 C 
ATOM      7  C   UNL     1      -1.424  -0.846   1.904  1.00  0.00     0.010 C 
ATOM      8  C   UNL     1       0.097  -0.549   1.961  1.00  0.00     0.009 C 
ATOM      9  C   UNL     1       0.797  -0.645   0.569  1.00  0.00     0.023 C 
ATOM     10  C   UNL     1       2.280  -0.271   0.585  1.00  0.00    -0.041 A 
ATOM     11  C   UNL     1       2.907   0.220  -0.594  1.00  0.00    -0.041 A 
ATOM     12  C   UNL     1       2.127   0.554  -1.848  1.00  0.00     0.036 C 
ATOM     13  C   UNL     1       0.716  -0.039  -1.868  1.00  0.00     0.009 C 
ATOM     14  C   UNL     1       0.037   0.183  -0.511  1.00  0.00     0.001 C 
ATOM     15  C   UNL     1       4.285   0.491  -0.591  1.00  0.00     0.050 A 
ATOM     16  C   UNL     1       5.060   0.238   0.544  1.00  0.00     0.115 A 
ATOM     17  C   UNL     1       4.461  -0.288   1.686  1.00  0.00     0.046 A 
ATOM     18  C   UNL     1       3.091  -0.554   1.706  1.00  0.00     0.008 A 
ENDROOT
BRANCH   3  19
ATOM     19  O   UNL     1      -4.525  -0.874  -1.712  1.00  0.00    -0.390 OA
ATOM     20  H   UNL     1      -3.990  -1.709  -1.765  1.00  0.00     0.211 HD
ENDBRANCH   3  19
BRANCH   4  21
ATOM     21  O   UNL     1      -4.513   0.119   1.377  1.00  0.00    -0.390 OA
ATOM     22  H   UNL     1      -5.380  -0.316   1.167  1.00  0.00     0.211 HD
ENDBRANCH   4  21
BRANCH  16  23
ATOM     23  O   UNL     1       6.428   0.503   0.544  1.00  0.00    -0.508 OA
ATOM     24  H   UNL     1       6.894   0.885  -0.271  1.00  0.00     0.293 HD
ENDBRANCH  16  23
TORSDOF 3
