REMARK SMILES OCCOc1ccc(/C(=C(/CCCl)c2ccccc2)c2ccccc2)cc1
REMARK SMILES IDX 5 1 6 2 7 3 8 4 26 5 27 6 4 7 3 8 2 9 1 10 9 12 10 13 20 14
REMARK SMILES IDX 21 15 25 16 22 17 24 18 23 19 11 20 12 21 13 22 14 23 15 24
REMARK SMILES IDX 19 25 16 26 18 27 17 28
REMARK H PARENT 1 11
REMARK Flexibility Score: inf
ROOT
ATOM      1  C   UNL     1       2.960  -0.026   0.428  1.00  0.00     0.119 A 
ATOM      2  C   UNL     1       2.300   0.316  -0.768  1.00  0.00     0.047 A 
ATOM      3  C   UNL     1       0.929   0.082  -0.907  1.00  0.00     0.012 A 
ATOM      4  C   UNL     1       0.194  -0.484   0.147  1.00  0.00    -0.017 A 
ATOM      5  C   UNL     1       0.857  -0.841   1.331  1.00  0.00     0.012 A 
ATOM      6  C   UNL     1       2.228  -0.608   1.469  1.00  0.00     0.047 A 
ENDROOT
BRANCH   1   7
ATOM      7  O   UNL     1       4.332   0.191   0.618  1.00  0.00    -0.491 OA
BRANCH   7   8
ATOM      8  C   UNL     1       5.198   0.774  -0.353  1.00  0.00     0.257 C 
BRANCH   8   9
ATOM      9  C   UNL     1       6.615   0.857   0.206  1.00  0.00     0.197 C 
BRANCH   9  10
ATOM     10  O   UNL     1       7.095  -0.420   0.526  1.00  0.00    -0.393 OA
ATOM     11  H   UNL     1       7.336  -0.857  -0.332  1.00  0.00     0.210 HD
ENDBRANCH   9  10
ENDBRANCH   8   9
ENDBRANCH   7   8
ENDBRANCH   1   7
BRANCH   4  12
ATOM     12  C   UNL     1      -1.262  -0.739   0.005  1.00  0.00    -0.007 C 
ATOM     13  C   UNL     1      -2.140   0.257  -0.305  1.00  0.00    -0.031 C 
BRANCH  12  14
ATOM     14  C   UNL     1      -1.695  -2.142   0.175  1.00  0.00    -0.018 A 
ATOM     15  C   UNL     1      -2.394  -2.536   1.327  1.00  0.00     0.009 A 
ATOM     16  C   UNL     1      -1.371  -3.098  -0.800  1.00  0.00     0.009 A 
ATOM     17  C   UNL     1      -2.785  -3.869   1.489  1.00  0.00     0.001 A 
ATOM     18  C   UNL     1      -1.763  -4.430  -0.634  1.00  0.00     0.001 A 
ATOM     19  C   UNL     1      -2.472  -4.814   0.508  1.00  0.00     0.000 A 
ENDBRANCH  12  14
BRANCH  13  20
ATOM     20  C   UNL     1      -3.599  -0.024  -0.644  1.00  0.00     0.053 C 
BRANCH  20  21
ATOM     21  C   UNL     1      -4.569   0.839   0.170  1.00  0.00     0.114 C 
ATOM     22  Cl  UNL     1      -4.433   0.505   1.916  1.00  0.00    -0.126 Cl
ENDBRANCH  20  21
ENDBRANCH  13  20
BRANCH  13  23
ATOM     23  C   UNL     1      -1.684   1.670  -0.381  1.00  0.00    -0.022 A 
ATOM     24  C   UNL     1      -1.124   2.296   0.746  1.00  0.00     0.008 A 
ATOM     25  C   UNL     1      -1.827   2.401  -1.573  1.00  0.00     0.008 A 
ATOM     26  C   UNL     1      -0.699   3.626   0.675  1.00  0.00     0.001 A 
ATOM     27  C   UNL     1      -1.400   3.731  -1.639  1.00  0.00     0.001 A 
ATOM     28  C   UNL     1      -0.835   4.342  -0.516  1.00  0.00     0.000 A 
ENDBRANCH  13  23
ENDBRANCH   4  12
TORSDOF 9
