REMARK SMILES CCOC(=O)Nc1ccc(NCc2ccc(F)cc2)cc1N
REMARK SMILES IDX 7 1 21 2 20 3 10 4 9 5 8 6 6 7 4 8 5 9 3 11 2 12 1 13 22 14
REMARK SMILES IDX 11 17 12 19 13 20 14 21 19 22 15 23 18 24 16 25 17 26
REMARK H PARENT 6 10 22 15 22 16 11 18
REMARK Flexibility Score: inf
ROOT
ATOM      1  C   UNL     1       1.197   0.340  -0.946  1.00  0.00     0.067 A 
ATOM      2  C   UNL     1       0.596   0.119   0.313  1.00  0.00     0.058 A 
ATOM      3  C   UNL     1      -0.571  -0.657   0.396  1.00  0.00     0.053 A 
ATOM      4  C   UNL     1      -1.169  -1.187  -0.762  1.00  0.00     0.036 A 
ATOM      5  C   UNL     1      -0.578  -0.934  -2.007  1.00  0.00     0.028 A 
ATOM      6  C   UNL     1       0.589  -0.173  -2.098  1.00  0.00     0.030 A 
ENDROOT
BRANCH   1   7
ATOM      7  N   UNL     1       2.413   1.089  -1.081  1.00  0.00    -0.289 N 
ATOM      8  C   UNL     1       3.639   0.687  -0.459  1.00  0.00     0.411 C 
ATOM      9  O   UNL     1       3.681  -0.354   0.254  1.00  0.00    -0.224 OA
ATOM     10  H   UNL     1       2.462   1.824  -1.822  1.00  0.00     0.173 HD
BRANCH   8  11
ATOM     11  O   UNL     1       4.790   1.457  -0.661  1.00  0.00    -0.450 OA
BRANCH  11  12
ATOM     12  C   UNL     1       6.068   1.114  -0.128  1.00  0.00     0.231 C 
ATOM     13  C   UNL     1       6.698  -0.021  -0.927  1.00  0.00     0.049 C 
ENDBRANCH  11  12
ENDBRANCH   8  11
ENDBRANCH   1   7
BRANCH   2  14
ATOM     14  N   UNL     1       1.125   0.714   1.505  1.00  0.00    -0.397 N 
ATOM     15  H   UNL     1       1.887   1.425   1.472  1.00  0.00     0.156 HD
ATOM     16  H   UNL     1       0.703   0.503   2.437  1.00  0.00     0.156 HD
ENDBRANCH   2  14
BRANCH   4  17
ATOM     17  N   UNL     1      -2.374  -1.976  -0.705  1.00  0.00    -0.381 N 
ATOM     18  H   UNL     1      -2.712  -2.431  -1.584  1.00  0.00     0.160 HD
BRANCH  17  19
ATOM     19  C   UNL     1      -3.200  -2.145   0.491  1.00  0.00     0.148 C 
BRANCH  19  20
ATOM     20  C   UNL     1      -3.874  -0.850   0.861  1.00  0.00    -0.029 A 
ATOM     21  C   UNL     1      -4.686  -0.186  -0.073  1.00  0.00     0.008 A 
ATOM     22  C   UNL     1      -3.720  -0.305   2.147  1.00  0.00     0.008 A 
ATOM     23  C   UNL     1      -5.318   1.014   0.268  1.00  0.00     0.039 A 
ATOM     24  C   UNL     1      -4.352   0.896   2.485  1.00  0.00     0.039 A 
ATOM     25  C   UNL     1      -5.149   1.556   1.546  1.00  0.00     0.123 A 
ATOM     26  F   UNL     1      -5.762   2.720   1.875  1.00  0.00    -0.207 F 
ENDBRANCH  19  20
ENDBRANCH  17  19
ENDBRANCH   4  17
TORSDOF 7
