REMARK SMILES NCCCCCCNS(=O)(=O)c1cccc2c(Cl)cccc12
REMARK SMILES IDX 5 1 4 2 3 3 2 4 1 5 6 8 7 9 8 10 9 12 10 13 11 14 12 15
REMARK SMILES IDX 13 16 22 17 14 18 16 19 21 20 15 21 17 22 20 23 19 24 18 25
REMARK H PARENT 1 6 1 7 8 11
REMARK Flexibility Score: inf
ROOT
ATOM      1  C   UNL     1       3.201  -1.436  -0.072  1.00  0.00     0.001 C 
ENDROOT
BRANCH   1   2
ATOM      2  C   UNL     1       3.003   0.065  -0.356  1.00  0.00     0.001 C 
BRANCH   2   3
ATOM      3  C   UNL     1       2.488   0.346  -1.778  1.00  0.00     0.015 C 
BRANCH   3   4
ATOM      4  C   UNL     1       2.344   1.847  -2.059  1.00  0.00     0.077 C 
BRANCH   4   5
ATOM      5  N   UNL     1       3.652   2.486  -2.175  1.00  0.00    -0.330 NA
ATOM      6  H   UNL     1       4.012   2.679  -1.213  1.00  0.00     0.118 HD
ATOM      7  H   UNL     1       3.511   3.421  -2.621  1.00  0.00     0.118 HD
ENDBRANCH   4   5
ENDBRANCH   3   4
ENDBRANCH   2   3
ENDBRANCH   1   2
BRANCH   1   8
ATOM      8  C   UNL     1       1.932  -2.301  -0.197  1.00  0.00     0.016 C 
BRANCH   8   9
ATOM      9  C   UNL     1       0.797  -1.836   0.722  1.00  0.00     0.099 C 
BRANCH   9  10
ATOM     10  N   UNL     1      -0.312  -2.791   0.669  1.00  0.00    -0.211 NA
ATOM     11  H   UNL     1      -0.727  -2.757  -0.289  1.00  0.00     0.141 HD
BRANCH  10  12
ATOM     12  S   UNL     1      -1.548  -2.319   1.800  1.00  0.00     0.241 S 
ATOM     13  O   UNL     1      -2.791  -3.128   1.559  1.00  0.00    -0.207 OA
ATOM     14  O   UNL     1      -1.061  -2.624   3.190  1.00  0.00    -0.207 OA
BRANCH  12  15
ATOM     15  C   UNL     1      -1.923  -0.585   1.656  1.00  0.00     0.090 A 
ATOM     16  C   UNL     1      -1.531   0.257   2.707  1.00  0.00     0.022 A 
ATOM     17  C   UNL     1      -2.544  -0.020   0.507  1.00  0.00     0.003 A 
ATOM     18  C   UNL     1      -1.746   1.630   2.642  1.00  0.00     0.002 A 
ATOM     19  C   UNL     1      -2.753   1.390   0.444  1.00  0.00     0.002 A 
ATOM     20  C   UNL     1      -2.958  -0.812  -0.585  1.00  0.00     0.010 A 
ATOM     21  C   UNL     1      -2.349   2.196   1.524  1.00  0.00     0.010 A 
ATOM     22  C   UNL     1      -3.358   1.961  -0.700  1.00  0.00     0.048 A 
ATOM     23  C   UNL     1      -3.552  -0.232  -1.704  1.00  0.00     0.002 A 
ATOM     24  C   UNL     1      -3.749   1.144  -1.763  1.00  0.00     0.021 A 
ATOM     25  Cl  UNL     1      -3.645   3.693  -0.856  1.00  0.00    -0.084 Cl
ENDBRANCH  12  15
ENDBRANCH  10  12
ENDBRANCH   9  10
ENDBRANCH   8   9
ENDBRANCH   1   8
TORSDOF 9
