REMARK SMILES O=C1NCN(c2ccccc2)C12CCN(CCCC(c1ccc(F)cc1)c1ccc(F)cc1)CC2
REMARK SMILES IDX 17 1 18 2 19 3 20 4 24 5 23 6 22 7 25 8 21 9 26 10 27 11
REMARK SMILES IDX 28 12 33 13 29 14 32 15 30 16 31 17 16 18 15 19 14 20 34 21
REMARK SMILES IDX 13 22 35 23 12 24 5 25 2 26 4 27 3 28 1 29 6 31 7 32 11 33
REMARK SMILES IDX 8 34 10 35 9 36
REMARK H PARENT 3 30
REMARK Flexibility Score: inf
ROOT
ATOM      1  C   UNL     1      -1.541   0.654  -0.523  1.00  0.00     0.016 C 
ENDROOT
BRANCH   1   2
ATOM      2  C   UNL     1      -2.712   1.591  -0.167  1.00  0.00     0.014 C 
BRANCH   2   3
ATOM      3  C   UNL     1      -4.081   0.876  -0.028  1.00  0.00     0.049 C 
BRANCH   3   4
ATOM      4  C   UNL     1      -4.433   0.138  -1.313  1.00  0.00    -0.040 A 
ATOM      5  F   UNL     1      -5.335  -1.801  -4.892  1.00  0.00    -0.207 F 
ATOM      6  C   UNL     1      -5.040  -1.170  -3.729  1.00  0.00     0.123 A 
ATOM      7  C   UNL     1      -4.321  -1.838  -2.734  1.00  0.00     0.039 A 
ATOM      8  C   UNL     1      -5.449   0.150  -3.526  1.00  0.00     0.039 A 
ATOM      9  C   UNL     1      -4.015  -1.190  -1.534  1.00  0.00     0.007 A 
ATOM     10  C   UNL     1      -5.144   0.804  -2.329  1.00  0.00     0.007 A 
ENDBRANCH   3   4
BRANCH   3  11
ATOM     11  C   UNL     1      -4.265  -0.000   1.215  1.00  0.00    -0.040 A 
ATOM     12  C   UNL     1      -5.489  -0.679   1.384  1.00  0.00     0.007 A 
ATOM     13  C   UNL     1      -3.299  -0.103   2.242  1.00  0.00     0.007 A 
ATOM     14  C   UNL     1      -5.720  -1.476   2.509  1.00  0.00     0.039 A 
ATOM     15  C   UNL     1      -3.536  -0.902   3.366  1.00  0.00     0.039 A 
ATOM     16  C   UNL     1      -4.741  -1.592   3.496  1.00  0.00     0.123 A 
ATOM     17  F   UNL     1      -4.966  -2.365   4.588  1.00  0.00    -0.207 F 
ENDBRANCH   3  11
ENDBRANCH   2   3
ENDBRANCH   1   2
BRANCH   1  18
ATOM     18  C   UNL     1      -0.193   1.360  -0.343  1.00  0.00     0.084 C 
BRANCH  18  19
ATOM     19  N   UNL     1       0.915   0.472  -0.765  1.00  0.00    -0.303 NA
ATOM     20  C   UNL     1       2.064   1.208  -1.323  1.00  0.00     0.087 C 
ATOM     21  C   UNL     1       1.351  -0.483   0.276  1.00  0.00     0.087 C 
ATOM     22  C   UNL     1       2.825   2.003  -0.252  1.00  0.00     0.054 C 
ATOM     23  C   UNL     1       2.123   0.182   1.432  1.00  0.00     0.054 C 
ATOM     24  C   UNL     1       3.245   1.141   0.962  1.00  0.00     0.123 C 
ATOM     25  N   UNL     1       4.515   0.428   0.723  1.00  0.00    -0.339 N 
ATOM     26  C   UNL     1       3.635   2.039   2.092  1.00  0.00     0.247 C 
ATOM     27  C   UNL     1       5.582   0.857   1.629  1.00  0.00     0.238 C 
ATOM     28  N   UNL     1       4.986   1.872   2.474  1.00  0.00    -0.336 N 
ATOM     29  O   UNL     1       2.867   2.868   2.651  1.00  0.00    -0.272 OA
ATOM     30  H   UNL     1       5.472   2.392   3.238  1.00  0.00     0.165 HD
BRANCH  25  31
ATOM     31  C   UNL     1       4.749  -0.590  -0.258  1.00  0.00     0.039 A 
ATOM     32  C   UNL     1       5.265  -0.247  -1.516  1.00  0.00     0.026 A 
ATOM     33  C   UNL     1       4.577  -1.942   0.075  1.00  0.00     0.026 A 
ATOM     34  C   UNL     1       5.540  -1.244  -2.457  1.00  0.00     0.002 A 
ATOM     35  C   UNL     1       4.859  -2.937  -0.866  1.00  0.00     0.002 A 
ATOM     36  C   UNL     1       5.334  -2.588  -2.133  1.00  0.00     0.000 A 
ENDBRANCH  25  31
ENDBRANCH  18  19
ENDBRANCH   1  18
TORSDOF 7
