REMARK SMILES CCCC(=O)SCC[N+](C)(C)C
REMARK SMILES IDX 6 1 4 2 5 3 3 4 2 5 1 6 7 7 8 8 9 9 10 10 11 11 12 12
REMARK H PARENT
REMARK Flexibility Score: inf
ROOT
ATOM      1  S   UNL     1       0.275  -1.320   1.662  1.00  0.00    -0.082 SA
ENDROOT
BRANCH   1   2
ATOM      2  C   UNL     1       2.017  -0.896   1.776  1.00  0.00     0.189 C 
ATOM      3  O   UNL     1       2.453  -0.433   2.819  1.00  0.00    -0.287 OA
BRANCH   2   4
ATOM      4  C   UNL     1       2.944  -1.179   0.624  1.00  0.00     0.088 C 
BRANCH   4   5
ATOM      5  C   UNL     1       3.872   0.000   0.295  1.00  0.00     0.005 C 
ATOM      6  C   UNL     1       3.116   1.220  -0.227  1.00  0.00     0.004 C 
ENDBRANCH   4   5
ENDBRANCH   2   4
ENDBRANCH   1   2
BRANCH   1   7
ATOM      7  C   UNL     1      -0.231   0.310   1.010  1.00  0.00     0.139 C 
BRANCH   7   8
ATOM      8  C   UNL     1      -1.764   0.391   0.820  1.00  0.00     0.274 C 
BRANCH   8   9
ATOM      9  N   UNL     1      -2.275  -0.006  -0.531  1.00  0.00    -0.330 N 
ATOM     10  C   UNL     1      -1.812  -1.359  -0.917  1.00  0.00     0.334 C 
ATOM     11  C   UNL     1      -1.867   0.975  -1.567  1.00  0.00     0.334 C 
ATOM     12  C   UNL     1      -3.758  -0.021  -0.472  1.00  0.00     0.334 C 
ENDBRANCH   8   9
ENDBRANCH   7   8
ENDBRANCH   1   7
TORSDOF 6
