REMARK SMILES C#C[C@]1(O)CC[C@H]2[C@@H]3CCc4cc(OC5CCCC5)ccc4[C@H]3CC[C@@]21C
REMARK SMILES IDX 7 1 6 2 5 3 3 4 26 5 27 6 25 7 24 8 23 9 22 10 11 11 10 12
REMARK SMILES IDX 9 13 8 14 12 15 13 16 20 17 21 18 4 19 2 21 1 22 14 23 15 24
REMARK SMILES IDX 16 25 19 26 17 27 18 28
REMARK H PARENT 4 20
REMARK Flexibility Score: inf
ROOT
ATOM      1  C   UNL     1      -3.257   0.530   0.304  1.00  0.00     0.003 C 
ATOM      2  C   UNL     1      -3.984   1.318   1.387  1.00  0.00     0.008 C 
ATOM      3  C   UNL     1      -5.406   0.724   1.409  1.00  0.00     0.050 C 
ATOM      4  C   UNL     1      -5.403  -0.511   0.469  1.00  0.00     0.130 C 
ATOM      5  C   UNL     1      -3.886  -0.872   0.353  1.00  0.00     0.011 C 
ATOM      6  C   UNL     1      -3.465  -1.698   1.616  1.00  0.00     0.016 C 
ATOM      7  C   UNL     1      -3.443  -1.638  -0.920  1.00  0.00     0.012 C 
ATOM      8  C   UNL     1      -1.899  -1.687  -1.054  1.00  0.00     0.009 C 
ATOM      9  C   UNL     1      -1.230  -0.282  -0.947  1.00  0.00     0.023 C 
ATOM     10  C   UNL     1       0.299  -0.309  -1.005  1.00  0.00    -0.041 A 
ATOM     11  C   UNL     1       1.058   0.723  -0.387  1.00  0.00    -0.041 A 
ATOM     12  C   UNL     1       0.421   1.787   0.481  1.00  0.00     0.036 C 
ATOM     13  C   UNL     1      -1.098   1.888   0.311  1.00  0.00     0.009 C 
ATOM     14  C   UNL     1      -1.716   0.485   0.319  1.00  0.00     0.001 C 
ATOM     15  C   UNL     1       2.458   0.726  -0.501  1.00  0.00     0.050 A 
ATOM     16  C   UNL     1       3.121  -0.250  -1.261  1.00  0.00     0.120 A 
ATOM     17  C   UNL     1       2.371  -1.227  -1.914  1.00  0.00     0.047 A 
ATOM     18  C   UNL     1       0.981  -1.253  -1.801  1.00  0.00     0.008 A 
ENDROOT
BRANCH   4  19
ATOM     19  O   UNL     1      -6.165  -1.548   1.040  1.00  0.00    -0.377 OA
ATOM     20  H   UNL     1      -6.098  -2.334   0.435  1.00  0.00     0.212 HD
ENDBRANCH   4  19
BRANCH   4  21
ATOM     21  C   UNL     1      -6.010  -0.130  -0.832  1.00  0.00    -0.071 C 
ATOM     22  C   UNL     1      -6.506   0.181  -1.887  1.00  0.00     0.007 C 
ENDBRANCH   4  21
BRANCH  16  23
ATOM     23  O   UNL     1       4.518  -0.285  -1.399  1.00  0.00    -0.490 OA
BRANCH  23  24
ATOM     24  C   UNL     1       5.438   0.588  -0.740  1.00  0.00     0.173 C 
ATOM     25  C   UNL     1       6.843   0.366  -1.286  1.00  0.00     0.045 C 
ATOM     26  C   UNL     1       5.515   0.296   0.764  1.00  0.00     0.045 C 
ATOM     27  C   UNL     1       7.772   0.565  -0.105  1.00  0.00     0.004 C 
ATOM     28  C   UNL     1       6.987   0.086   1.103  1.00  0.00     0.004 C 
ENDBRANCH  23  24
ENDBRANCH  16  23
TORSDOF 4
