REMARK SMILES Cn1cncc1[C@@](N)(c1ccc(Cl)cc1)c1ccc2c(c1)c(-c1cccc(Cl)c1)cc(=O)n2C
REMARK SMILES IDX 16 1 21 2 20 3 19 4 18 5 17 6 33 7 34 8 31 9 32 10 30 11
REMARK SMILES IDX 22 12 7 13 6 14 1 15 2 16 3 17 4 18 5 19 8 20 9 23 10 24
REMARK SMILES IDX 15 25 11 26 14 27 12 28 13 29 23 30 29 31 24 32 27 33 25 34
REMARK SMILES IDX 28 35 26 36
REMARK H PARENT 8 21 8 22
REMARK Flexibility Score: inf
ROOT
ATOM      1  C   UNL     1      -0.559  -1.162  -0.239  1.00  0.00    -0.017 A 
ATOM      2  C   UNL     1       0.598  -0.371  -0.365  1.00  0.00     0.017 A 
ATOM      3  C   UNL     1       1.889  -0.929  -0.281  1.00  0.00     0.007 A 
ATOM      4  C   UNL     1       2.040  -2.340  -0.204  1.00  0.00     0.051 A 
ATOM      5  C   UNL     1       0.871  -3.135  -0.174  1.00  0.00     0.027 A 
ATOM      6  C   UNL     1      -0.397  -2.556  -0.197  1.00  0.00     0.008 A 
ATOM      7  N   UNL     1       3.304  -2.903  -0.179  1.00  0.00    -0.311 N 
ATOM      8  C   UNL     1       3.470  -4.369  -0.097  1.00  0.00     0.153 C 
ATOM      9  C   UNL     1       4.418  -2.098  -0.242  1.00  0.00     0.251 A 
ATOM     10  O   UNL     1       5.579  -2.595  -0.241  1.00  0.00    -0.269 OA
ATOM     11  C   UNL     1       4.297  -0.712  -0.300  1.00  0.00     0.081 A 
ATOM     12  C   UNL     1       3.041  -0.111  -0.300  1.00  0.00    -0.004 A 
ENDROOT
BRANCH   1  13
ATOM     13  C   UNL     1      -1.971  -0.541  -0.322  1.00  0.00     0.109 C 
BRANCH  13  14
ATOM     14  C   UNL     1      -2.951  -1.222   0.639  1.00  0.00     0.066 A 
ATOM     15  C   UNL     1      -5.138  -0.654  -0.518  1.00  0.00     0.151 C 
ATOM     16  N   UNL     1      -4.300  -1.205   0.544  1.00  0.00    -0.336 N 
ATOM     17  C   UNL     1      -4.753  -1.807   1.662  1.00  0.00     0.199 A 
ATOM     18  N   UNL     1      -3.760  -2.178   2.493  1.00  0.00    -0.245 NA
ATOM     19  C   UNL     1      -2.633  -1.799   1.859  1.00  0.00     0.137 A 
ENDBRANCH  13  14
BRANCH  13  20
ATOM     20  N   UNL     1      -2.448  -0.718  -1.703  1.00  0.00    -0.313 NA
ATOM     21  H   UNL     1      -1.736  -0.340  -2.371  1.00  0.00     0.120 HD
ATOM     22  H   UNL     1      -2.541  -1.740  -1.912  1.00  0.00     0.120 HD
ENDBRANCH  13  20
BRANCH  13  23
ATOM     23  C   UNL     1      -1.956   0.950   0.065  1.00  0.00    -0.018 A 
ATOM     24  C   UNL     1      -1.461   1.336   1.331  1.00  0.00     0.008 A 
ATOM     25  C   UNL     1      -2.401   1.964  -0.813  1.00  0.00     0.008 A 
ATOM     26  C   UNL     1      -1.382   2.683   1.691  1.00  0.00     0.021 A 
ATOM     27  C   UNL     1      -2.324   3.310  -0.444  1.00  0.00     0.021 A 
ATOM     28  C   UNL     1      -1.809   3.671   0.802  1.00  0.00     0.041 A 
ATOM     29  Cl  UNL     1      -1.692   5.363   1.250  1.00  0.00    -0.084 Cl
ENDBRANCH  13  23
ENDBRANCH   1  13
BRANCH  12  30
ATOM     30  C   UNL     1       2.968   1.371  -0.277  1.00  0.00    -0.016 A 
ATOM     31  C   UNL     1       3.529   2.124  -1.321  1.00  0.00     0.029 A 
ATOM     32  C   UNL     1       2.345   2.035   0.794  1.00  0.00     0.009 A 
ATOM     33  C   UNL     1       3.444   3.521  -1.307  1.00  0.00     0.041 A 
ATOM     34  C   UNL     1       2.256   3.429   0.803  1.00  0.00     0.002 A 
ATOM     35  Cl  UNL     1       4.133   4.455  -2.621  1.00  0.00    -0.084 Cl
ATOM     36  C   UNL     1       2.804   4.172  -0.247  1.00  0.00     0.020 A 
ENDBRANCH  12  30
TORSDOF 5
