REMARK SMILES O=C(CCNNC(=O)c1ccncc1)NCc1ccccc1
REMARK SMILES IDX 3 1 2 2 1 3 15 4 16 6 17 7 18 8 22 9 19 10 21 11 20 12 4 13
REMARK SMILES IDX 5 14 6 16 7 17 8 19 9 20 10 21 14 22 11 23 13 24 12 25
REMARK H PARENT 15 5 5 15 6 18
REMARK Flexibility Score: inf
ROOT
ATOM      1  C   UNL     1      -0.676  -1.547   2.297  1.00  0.00     0.117 C 
ENDROOT
BRANCH   1   2
ATOM      2  C   UNL     1      -2.020  -0.890   2.222  1.00  0.00     0.221 C 
ATOM      3  O   UNL     1      -2.220   0.185   2.849  1.00  0.00    -0.275 OA
ATOM      4  N   UNL     1      -3.051  -1.453   1.401  1.00  0.00    -0.352 N 
ATOM      5  H   UNL     1      -2.875  -2.363   0.918  1.00  0.00     0.163 HD
BRANCH   4   6
ATOM      6  C   UNL     1      -4.301  -0.751   1.121  1.00  0.00     0.151 C 
BRANCH   6   7
ATOM      7  C   UNL     1      -4.086   0.260   0.029  1.00  0.00    -0.029 A 
ATOM      8  C   UNL     1      -4.030  -0.156  -1.312  1.00  0.00     0.005 A 
ATOM      9  C   UNL     1      -3.887   1.616   0.339  1.00  0.00     0.005 A 
ATOM     10  C   UNL     1      -3.803   0.776  -2.329  1.00  0.00     0.000 A 
ATOM     11  C   UNL     1      -3.660   2.545  -0.683  1.00  0.00     0.000 A 
ATOM     12  C   UNL     1      -3.622   2.126  -2.016  1.00  0.00     0.000 A 
ENDBRANCH   6   7
ENDBRANCH   4   6
ENDBRANCH   1   2
BRANCH   1  13
ATOM     13  C   UNL     1       0.210  -1.088   1.138  1.00  0.00     0.114 C 
BRANCH  13  14
ATOM     14  N   UNL     1       1.520  -1.734   1.226  1.00  0.00    -0.234 NA
ATOM     15  H   UNL     1       1.405  -2.748   0.993  1.00  0.00     0.147 HD
BRANCH  14  16
ATOM     16  N   UNL     1       2.355  -1.177   0.242  1.00  0.00    -0.287 N 
ATOM     17  C   UNL     1       3.419  -0.294   0.617  1.00  0.00     0.265 C 
ATOM     18  H   UNL     1       2.134  -1.341  -0.767  1.00  0.00     0.185 HD
ATOM     19  O   UNL     1       3.543   0.043   1.826  1.00  0.00    -0.268 OA
BRANCH  17  20
ATOM     20  C   UNL     1       4.374   0.234  -0.387  1.00  0.00     0.044 A 
ATOM     21  C   UNL     1       5.073   1.427  -0.133  1.00  0.00     0.034 A 
ATOM     22  C   UNL     1       4.629  -0.454  -1.586  1.00  0.00     0.034 A 
ATOM     23  C   UNL     1       5.987   1.909  -1.073  1.00  0.00     0.112 A 
ATOM     24  C   UNL     1       5.553   0.063  -2.497  1.00  0.00     0.112 A 
ATOM     25  N   UNL     1       6.207   1.222  -2.224  1.00  0.00    -0.265 NA
ENDBRANCH  17  20
ENDBRANCH  14  16
ENDBRANCH  13  14
ENDBRANCH   1  13
TORSDOF 7
