REMARK SMILES CC[C@@]1(O)C(=O)OCc2c1cc1n(c2=O)Cc2cc3ccccc3nc2-1
REMARK SMILES IDX 3 1 5 2 6 3 7 4 8 5 9 6 10 7 11 8 12 9 13 10 16 11 17 12
REMARK SMILES IDX 18 13 19 14 20 15 21 16 22 17 23 18 24 19 25 20 26 21 14 22
REMARK SMILES IDX 15 23 2 24 1 25 4 26
REMARK H PARENT 4 27
REMARK Flexibility Score: inf
ROOT
ATOM      1  C   UNL     1      -3.497   0.658   0.204  1.00  0.00     0.187 C 
ATOM      2  C   UNL     1      -4.791   0.024  -0.279  1.00  0.00     0.343 C 
ATOM      3  O   UNL     1      -5.877   0.655  -0.176  1.00  0.00    -0.248 OA
ATOM      4  O   UNL     1      -4.804  -1.232  -0.878  1.00  0.00    -0.458 OA
ATOM      5  C   UNL     1      -3.788  -2.196  -0.653  1.00  0.00     0.275 C 
ATOM      6  C   UNL     1      -2.427  -1.563  -0.565  1.00  0.00     0.062 A 
ATOM      7  C   UNL     1      -2.284  -0.229  -0.090  1.00  0.00     0.009 A 
ATOM      8  C   UNL     1      -0.986   0.264   0.172  1.00  0.00     0.036 A 
ATOM      9  C   UNL     1       0.106  -0.547  -0.110  1.00  0.00     0.071 A 
ATOM     10  N   UNL     1      -0.046  -1.798  -0.591  1.00  0.00    -0.302 N 
ATOM     11  C   UNL     1       1.260  -2.446  -0.777  1.00  0.00     0.164 C 
ATOM     12  C   UNL     1       2.211  -1.374  -0.332  1.00  0.00     0.000 A 
ATOM     13  C   UNL     1       3.602  -1.384  -0.274  1.00  0.00     0.018 A 
ATOM     14  C   UNL     1       4.251  -0.224   0.195  1.00  0.00     0.001 A 
ATOM     15  C   UNL     1       5.650  -0.164   0.280  1.00  0.00     0.010 A 
ATOM     16  C   UNL     1       6.272   0.998   0.748  1.00  0.00     0.001 A 
ATOM     17  C   UNL     1       5.508   2.103   1.135  1.00  0.00     0.002 A 
ATOM     18  C   UNL     1       4.112   2.059   1.056  1.00  0.00     0.029 A 
ATOM     19  C   UNL     1       3.473   0.905   0.590  1.00  0.00     0.071 A 
ATOM     20  N   UNL     1       2.109   0.864   0.514  1.00  0.00    -0.246 NA
ATOM     21  C   UNL     1       1.508  -0.263   0.060  1.00  0.00     0.092 A 
ATOM     22  C   UNL     1      -1.272  -2.343  -0.808  1.00  0.00     0.258 A 
ATOM     23  O   UNL     1      -1.370  -3.535  -1.209  1.00  0.00    -0.269 OA
ENDROOT
BRANCH   1  24
ATOM     24  C   UNL     1      -3.341   2.056  -0.475  1.00  0.00     0.049 C 
ATOM     25  C   UNL     1      -3.136   1.985  -1.993  1.00  0.00     0.008 C 
ENDBRANCH   1  24
BRANCH   1  26
ATOM     26  O   UNL     1      -3.565   0.818   1.602  1.00  0.00    -0.374 OA
ATOM     27  H   UNL     1      -4.307   1.446   1.810  1.00  0.00     0.212 HD
ENDBRANCH   1  26
TORSDOF 2
