REMARK SMILES CCOC(=O)C1=C(C)NC(=S)N[C@H]1c1cccc(O)c1
REMARK SMILES IDX 6 1 7 2 8 3 9 4 10 5 11 6 12 7 13 8 4 11 5 12 3 13 2 14 1 15
REMARK SMILES IDX 14 16 15 17 20 18 16 19 18 20 17 21 19 22
REMARK H PARENT 9 9 12 10 19 23
REMARK Flexibility Score: inf
ROOT
ATOM      1  C   UNL     1       0.741  -0.886  -0.246  1.00  0.00     0.083 C 
ATOM      2  C   UNL     1       1.209  -1.958   0.456  1.00  0.00     0.027 C 
ATOM      3  C   UNL     1       2.579  -1.976   1.085  1.00  0.00     0.065 C 
ATOM      4  N   UNL     1       0.402  -3.135   0.610  1.00  0.00    -0.336 N 
ATOM      5  C   UNL     1      -0.804  -3.294  -0.130  1.00  0.00     0.171 C 
ATOM      6  S   UNL     1      -1.647  -4.695  -0.051  1.00  0.00    -0.041 S 
ATOM      7  N   UNL     1      -1.248  -2.231  -0.964  1.00  0.00    -0.351 N 
ATOM      8  C   UNL     1      -0.649  -0.898  -0.882  1.00  0.00     0.151 C 
ATOM      9  H   UNL     1       0.727  -3.915   1.225  1.00  0.00     0.169 HD
ATOM     10  H   UNL     1      -2.104  -2.360  -1.550  1.00  0.00     0.163 HD
ENDROOT
BRANCH   1  11
ATOM     11  C   UNL     1       1.512   0.382  -0.393  1.00  0.00     0.338 C 
ATOM     12  O   UNL     1       2.367   0.728   0.468  1.00  0.00    -0.246 OA
BRANCH  11  13
ATOM     13  O   UNL     1       1.229   1.230  -1.471  1.00  0.00    -0.463 OA
BRANCH  13  14
ATOM     14  C   UNL     1       1.907   2.463  -1.704  1.00  0.00     0.230 C 
ATOM     15  C   UNL     1       3.299   2.211  -2.273  1.00  0.00     0.049 C 
ENDBRANCH  13  14
ENDBRANCH  11  13
ENDBRANCH   1  11
BRANCH   8  16
ATOM     16  C   UNL     1      -1.576   0.026  -0.122  1.00  0.00    -0.017 A 
ATOM     17  C   UNL     1      -2.079   1.187  -0.735  1.00  0.00     0.006 A 
ATOM     18  C   UNL     1      -1.931  -0.253   1.211  1.00  0.00     0.052 A 
ATOM     19  C   UNL     1      -2.924   2.049  -0.030  1.00  0.00     0.004 A 
ATOM     20  C   UNL     1      -2.778   0.610   1.916  1.00  0.00     0.115 A 
ATOM     21  C   UNL     1      -3.274   1.762   1.292  1.00  0.00     0.046 A 
BRANCH  20  22
ATOM     22  O   UNL     1      -3.117   0.314   3.234  1.00  0.00    -0.508 OA
ATOM     23  H   UNL     1      -3.728   0.918   3.772  1.00  0.00     0.293 HD
ENDBRANCH  20  22
ENDBRANCH   8  16
TORSDOF 5
