REMARK SMILES C[N+](C)([O-])CCNc1ccc(NCC[N+](C)(C)[O-])c2c1C(=O)c1c(O)ccc(O)c1C2=O
REMARK SMILES IDX 8 1 9 2 10 3 11 4 19 5 20 6 21 7 22 8 23 9 24 10 26 11 27 12
REMARK SMILES IDX 28 13 30 14 31 15 32 16 7 17 6 19 5 20 2 21 1 22 3 23 4 24
REMARK SMILES IDX 12 25 13 27 14 28 15 29 16 30 17 31 18 32 25 33 29 35
REMARK H PARENT 7 18 12 26 25 34 29 36
REMARK Flexibility Score: inf
ROOT
ATOM      1  C   UNL     1       1.118   0.226   0.678  1.00  0.00     0.046 A 
ATOM      2  C   UNL     1       0.521   1.382   1.195  1.00  0.00     0.028 A 
ATOM      3  C   UNL     1      -0.851   1.444   1.406  1.00  0.00     0.028 A 
ATOM      4  C   UNL     1      -1.682   0.354   1.101  1.00  0.00     0.046 A 
ATOM      5  C   UNL     1      -1.105  -0.809   0.521  1.00  0.00     0.059 A 
ATOM      6  C   UNL     1       0.296  -0.870   0.311  1.00  0.00     0.059 A 
ATOM      7  C   UNL     1       0.860  -2.078  -0.345  1.00  0.00     0.200 C 
ATOM      8  O   UNL     1       1.887  -1.984  -1.070  1.00  0.00    -0.288 OA
ATOM      9  C   UNL     1       0.119  -3.359  -0.272  1.00  0.00     0.079 A 
ATOM     10  C   UNL     1       0.755  -4.618  -0.411  1.00  0.00     0.127 A 
ATOM     11  C   UNL     1      -0.017  -5.780  -0.468  1.00  0.00     0.051 A 
ATOM     12  C   UNL     1      -1.402  -5.719  -0.337  1.00  0.00     0.051 A 
ATOM     13  C   UNL     1      -2.042  -4.491  -0.141  1.00  0.00     0.127 A 
ATOM     14  C   UNL     1      -1.283  -3.301  -0.107  1.00  0.00     0.079 A 
ATOM     15  C   UNL     1      -1.927  -1.976   0.083  1.00  0.00     0.200 C 
ATOM     16  O   UNL     1      -3.148  -1.832  -0.196  1.00  0.00    -0.288 OA
ENDROOT
BRANCH   1  17
ATOM     17  N   UNL     1       2.554   0.139   0.595  1.00  0.00    -0.379 N 
ATOM     18  H   UNL     1       3.010  -0.790   0.739  1.00  0.00     0.160 HD
BRANCH  17  19
ATOM     19  C   UNL     1       3.399   1.303   0.323  1.00  0.00     0.174 C 
BRANCH  19  20
ATOM     20  C   UNL     1       4.831   0.862  -0.044  1.00  0.00     0.285 C 
BRANCH  20  21
ATOM     21  N   UNL     1       5.698   1.972  -0.514  1.00  0.00    -0.365 N 
ATOM     22  C   UNL     1       5.884   3.015   0.514  1.00  0.00     0.335 C 
ATOM     23  C   UNL     1       7.010   1.439  -0.927  1.00  0.00     0.335 C 
ATOM     24  O   UNL     1       5.129   2.546  -1.606  1.00  0.00    -0.633 OA
ENDBRANCH  20  21
ENDBRANCH  19  20
ENDBRANCH  17  19
ENDBRANCH   1  17
BRANCH   4  25
ATOM     25  N   UNL     1      -3.084   0.400   1.449  1.00  0.00    -0.379 N 
ATOM     26  H   UNL     1      -3.568  -0.487   1.709  1.00  0.00     0.160 HD
BRANCH  25  27
ATOM     27  C   UNL     1      -3.861   1.631   1.622  1.00  0.00     0.174 C 
BRANCH  27  28
ATOM     28  C   UNL     1      -3.953   2.471   0.327  1.00  0.00     0.285 C 
BRANCH  28  29
ATOM     29  N   UNL     1      -4.547   1.771  -0.844  1.00  0.00    -0.365 N 
ATOM     30  C   UNL     1      -4.677   2.716  -1.969  1.00  0.00     0.335 C 
ATOM     31  C   UNL     1      -5.860   1.167  -0.546  1.00  0.00     0.335 C 
ATOM     32  O   UNL     1      -3.704   0.785  -1.245  1.00  0.00    -0.633 OA
ENDBRANCH  28  29
ENDBRANCH  27  28
ENDBRANCH  25  27
ENDBRANCH   4  25
BRANCH  10  33
ATOM     33  O   UNL     1       2.144  -4.760  -0.463  1.00  0.00    -0.507 OA
ATOM     34  H   UNL     1       2.790  -4.015  -0.239  1.00  0.00     0.293 HD
ENDBRANCH  10  33
BRANCH  13  35
ATOM     35  O   UNL     1      -3.426  -4.457   0.029  1.00  0.00    -0.507 OA
ATOM     36  H   UNL     1      -3.986  -5.302   0.010  1.00  0.00     0.293 HD
ENDBRANCH  13  35
TORSDOF 10
