REMARK SMILES CCN(CC)C(=O)[C@@H]1C=C2c3cccc4[nH]cc(c34)C[C@H]2N(C)C1
REMARK SMILES IDX 6 1 7 2 3 3 8 4 21 5 20 6 10 7 22 8 18 9 11 10 9 11 24 12
REMARK SMILES IDX 23 13 17 14 19 15 12 16 16 17 15 18 13 19 14 21 2 22 1 23
REMARK SMILES IDX 4 24 5 25
REMARK H PARENT 16 20
REMARK Flexibility Score: inf
ROOT
ATOM      1  C   UNL     1      -2.612  -1.389   0.502  1.00  0.00     0.230 C 
ATOM      2  O   UNL     1      -3.451  -2.269   0.834  1.00  0.00    -0.274 OA
ATOM      3  N   UNL     1      -3.075  -0.163  -0.089  1.00  0.00    -0.343 N 
ENDROOT
BRANCH   1   4
ATOM      4  C   UNL     1      -1.143  -1.663   0.709  1.00  0.00     0.116 C 
ATOM      5  C   UNL     1       1.456  -1.237  -0.611  1.00  0.00     0.091 C 
ATOM      6  C   UNL     1       3.023  -1.242  -0.633  1.00  0.00     0.061 C 
ATOM      7  C   UNL     1       0.852  -0.188   0.348  1.00  0.00    -0.026 C 
ATOM      8  N   UNL     1       0.887  -2.594  -0.413  1.00  0.00    -0.298 NA
ATOM      9  C   UNL     1       3.540   0.162  -0.616  1.00  0.00    -0.020 A 
ATOM     10  C   UNL     1       1.575   1.113   0.494  1.00  0.00    -0.011 A 
ATOM     11  C   UNL     1      -0.359  -0.387   0.898  1.00  0.00    -0.007 C 
ATOM     12  C   UNL     1      -0.588  -2.529  -0.441  1.00  0.00     0.102 C 
ATOM     13  C   UNL     1       1.379  -3.282   0.799  1.00  0.00     0.106 C 
ATOM     14  C   UNL     1       4.800   0.682  -0.895  1.00  0.00     0.087 A 
ATOM     15  C   UNL     1       2.850   1.173  -0.033  1.00  0.00     0.010 A 
ATOM     16  C   UNL     1       1.080   2.305   1.081  1.00  0.00     0.009 A 
ATOM     17  N   UNL     1       4.853   1.989  -0.524  1.00  0.00    -0.361 N 
ATOM     18  C   UNL     1       3.647   2.271   0.008  1.00  0.00     0.046 A 
ATOM     19  C   UNL     1       1.894   3.467   1.127  1.00  0.00     0.003 A 
ATOM     20  H   UNL     1       5.675   2.629  -0.598  1.00  0.00     0.166 HD
ATOM     21  C   UNL     1       3.201   3.456   0.591  1.00  0.00     0.027 A 
ENDBRANCH   1   4
BRANCH   3  22
ATOM     22  C   UNL     1      -3.086  -0.009  -1.547  1.00  0.00     0.116 C 
ATOM     23  C   UNL     1      -1.923   0.861  -2.011  1.00  0.00     0.027 C 
ENDBRANCH   3  22
BRANCH   3  24
ATOM     24  C   UNL     1      -3.713   0.848   0.761  1.00  0.00     0.116 C 
ATOM     25  C   UNL     1      -5.177   0.503   1.014  1.00  0.00     0.027 C 
ENDBRANCH   3  24
TORSDOF 3
