REMARK SMILES O=C(CC(=O)C(F)(F)F)c1cccs1
REMARK SMILES IDX 3 1 4 2 5 3 6 4 7 5 8 6 9 7 2 8 1 9 10 10 11 11 14 12 12 13
REMARK SMILES IDX 13 14
REMARK H PARENT
REMARK Flexibility Score: inf
ROOT
ATOM      1  C   UNL     1      -1.108  -0.938   0.652  1.00  0.00     0.167 C 
ENDROOT
BRANCH   1   2
ATOM      2  C   UNL     1      -1.849  -0.025  -0.287  1.00  0.00     0.243 C 
ATOM      3  O   UNL     1      -1.261   0.469  -1.237  1.00  0.00    -0.289 OA
BRANCH   2   4
ATOM      4  C   UNL     1      -3.309   0.268  -0.075  1.00  0.00     0.450 C 
ATOM      5  F   UNL     1      -3.496   0.805   1.185  1.00  0.00    -0.163 F 
ATOM      6  F   UNL     1      -3.766   1.170  -1.020  1.00  0.00    -0.163 F 
ATOM      7  F   UNL     1      -4.036  -0.903  -0.184  1.00  0.00    -0.163 F 
ENDBRANCH   2   4
ENDBRANCH   1   2
BRANCH   1   8
ATOM      8  C   UNL     1      -0.109  -0.160   1.460  1.00  0.00     0.180 C 
ATOM      9  O   UNL     1      -0.459   0.302   2.580  1.00  0.00    -0.293 OA
BRANCH   8  10
ATOM     10  C   UNL     1       1.255   0.113   0.966  1.00  0.00     0.070 A 
ATOM     11  C   UNL     1       1.799  -0.273  -0.257  1.00  0.00     0.023 A 
ATOM     12  S   UNL     1       2.429   0.972   1.813  1.00  0.00    -0.141 S 
ATOM     13  C   UNL     1       3.123   0.146  -0.432  1.00  0.00     0.012 A 
ATOM     14  C   UNL     1       3.631   0.861   0.644  1.00  0.00     0.065 A 
ENDBRANCH   8  10
ENDBRANCH   1   8
TORSDOF 4
