REMARK SMILES C/C(=C\c1csc(C)n1)[C@@H]1C[C@@H]2O[C@]2(C)CCC[C@H](C)[C@H](O)[C@@H](C)C(=O)C(C)(C)[C@@H](O)CC(=O)N1
REMARK SMILES IDX 18 1 17 2 16 3 14 4 12 5 13 6 15 7 11 8 10 9 35 10 33 11
REMARK SMILES IDX 34 13 2 15 1 16 3 17 4 18 5 19 9 20 6 21 7 22 8 23 19 24
REMARK SMILES IDX 20 25 21 26 23 27 24 28 25 29 26 30 27 31 28 32 29 33 30 34
REMARK SMILES IDX 32 35 31 37 22 39
REMARK H PARENT 35 12 31 38 22 40
REMARK Flexibility Score: 50.00
ROOT
ATOM      1  C   UNL     1      -2.508   3.192   0.412  1.00  0.00     0.006 C 
ENDROOT
BRANCH   1   2
ATOM      2  C   UNL     1      -1.334   2.350   0.926  1.00  0.00     0.003 C 
BRANCH   2   3
ATOM      3  C   UNL     1      -0.003   3.130   0.890  1.00  0.00     0.038 C 
BRANCH   3   4
ATOM      4  C   UNL     1       0.818   2.815  -0.376  1.00  0.00     0.092 C 
ATOM      5  C   UNL     1       1.715   1.622  -0.454  1.00  0.00     0.153 C 
ATOM      6  O   UNL     1       2.202   2.910  -0.130  1.00  0.00    -0.366 OA
ATOM      7  C   UNL     1       0.427   3.475  -1.698  1.00  0.00     0.045 C 
BRANCH   5   8
ATOM      8  C   UNL     1       1.788   0.668   0.752  1.00  0.00     0.064 C 
BRANCH   8   9
ATOM      9  C   UNL     1       2.161  -0.769   0.325  1.00  0.00     0.110 C 
BRANCH   9  10
ATOM     10  N   UNL     1       1.654  -1.697   1.343  1.00  0.00    -0.349 N 
ATOM     11  C   UNL     1       0.272  -2.088   1.428  1.00  0.00     0.223 CG0
ATOM     12  H   UNL     1       2.254  -1.874   2.183  1.00  0.00     0.164 HD
ATOM     13  O   UNL     1      -0.176  -2.499   2.532  1.00  0.00    -0.275 OA
ATOM     14  G   UNL     1      -0.642  -1.986   0.227  1.00  0.00     0.000 G0
ENDBRANCH   9  10
BRANCH   9  15
ATOM     15  C   UNL     1       3.649  -1.042   0.087  1.00  0.00    -0.049 C 
ATOM     16  C   UNL     1       4.015  -2.456  -0.301  1.00  0.00     0.042 C 
ATOM     17  C   UNL     1       4.582  -0.060   0.095  1.00  0.00     0.030 C 
BRANCH  17  18
ATOM     18  C   UNL     1       6.031  -0.252  -0.121  1.00  0.00     0.074 A 
ATOM     19  C   UNL     1       6.796  -1.250   0.485  1.00  0.00     0.095 A 
ATOM     20  N   UNL     1       6.746   0.651  -0.846  1.00  0.00    -0.242 NA
ATOM     21  S   UNL     1       8.404  -1.001   0.059  1.00  0.00    -0.127 S 
ATOM     22  C   UNL     1       8.063   0.355  -0.872  1.00  0.00     0.090 A 
ATOM     23  C   UNL     1       9.089   1.213  -1.529  1.00  0.00     0.079 C 
ENDBRANCH  17  18
ENDBRANCH   9  15
ENDBRANCH   8   9
ENDBRANCH   5   8
ENDBRANCH   3   4
ENDBRANCH   2   3
ENDBRANCH   1   2
BRANCH   1  24
ATOM     24  C   UNL     1      -3.900   2.532   0.585  1.00  0.00     0.015 C 
ATOM     25  C   UNL     1      -4.260   2.329   2.067  1.00  0.00     0.010 C 
BRANCH  24  26
ATOM     26  C   UNL     1      -4.149   1.297  -0.360  1.00  0.00     0.127 C 
BRANCH  26  27
ATOM     27  C   UNL     1      -3.844  -0.150   0.188  1.00  0.00     0.082 C 
ATOM     28  C   UNL     1      -5.007  -0.717   1.029  1.00  0.00     0.019 C 
BRANCH  27  29
ATOM     29  C   UNL     1      -3.556  -1.125  -0.969  1.00  0.00     0.146 C 
ATOM     30  O   UNL     1      -3.935  -0.804  -2.088  1.00  0.00    -0.299 OA
BRANCH  29  31
ATOM     31  C   UNL     1      -2.988  -2.555  -0.801  1.00  0.00     0.050 C 
ATOM     32  C   UNL     1      -2.279  -2.963  -2.122  1.00  0.00     0.022 C 
ATOM     33  C   UNL     1      -4.184  -3.520  -0.615  1.00  0.00     0.022 C 
BRANCH  31  34
ATOM     34  C   UNL     1      -2.004  -2.703   0.422  1.00  0.00     0.136 C 
BRANCH  34  35
ATOM     35  C   UNL     1      -0.642  -1.986   0.227  1.00  0.00     0.132 CG0
ATOM     36  G   UNL     1       0.272  -2.088   1.428  1.00  0.00     0.000 G0
ENDBRANCH  34  35
BRANCH  34  37
ATOM     37  O   UNL     1      -1.798  -4.060   0.745  1.00  0.00    -0.392 OA
ATOM     38  H   UNL     1      -1.189  -4.454   0.069  1.00  0.00     0.211 HD
ENDBRANCH  34  37
ENDBRANCH  31  34
ENDBRANCH  29  31
ENDBRANCH  27  29
ENDBRANCH  26  27
BRANCH  26  39
ATOM     39  O   UNL     1      -5.446   1.349  -0.910  1.00  0.00    -0.392 OA
ATOM     40  H   UNL     1      -6.091   1.443  -0.160  1.00  0.00     0.210 HD
ENDBRANCH  26  39
ENDBRANCH  24  26
ENDBRANCH   1  24
TORSDOF 4
