REMARK SMILES Cc1nc(C(=O)NCC(=O)O)c(O)c2ccc(Oc3ccccc3)cc12
REMARK SMILES IDX 5 1 6 2 7 3 4 5 1 6 2 7 3 8 26 9 14 10 25 11 12 12 15 13
REMARK SMILES IDX 17 14 16 15 13 16 18 18 19 19 20 20 24 21 21 22 23 23 22 24
REMARK SMILES IDX 8 25 9 26 10 27 11 28
REMARK H PARENT 7 4 13 17 11 29
REMARK Flexibility Score: inf
ROOT
ATOM      1  C   UNL     1       3.712  -1.625   0.077  1.00  0.00     0.274 C 
ATOM      2  O   UNL     1       3.882  -2.819   0.446  1.00  0.00    -0.267 OA
ATOM      3  N   UNL     1       4.840  -0.841  -0.339  1.00  0.00    -0.340 N 
ATOM      4  H   UNL     1       4.673   0.052  -0.857  1.00  0.00     0.164 HD
ENDROOT
BRANCH   1   5
ATOM      5  C   UNL     1       2.340  -1.080   0.027  1.00  0.00     0.170 A 
ATOM      6  C   UNL     1      -0.991  -2.573  -0.748  1.00  0.00     0.067 C 
ATOM      7  C   UNL     1       0.032  -1.537  -0.377  1.00  0.00     0.046 A 
ATOM      8  N   UNL     1       1.330  -1.925  -0.299  1.00  0.00    -0.244 NA
ATOM      9  C   UNL     1      -0.309  -0.189  -0.120  1.00  0.00     0.010 A 
ATOM     10  C   UNL     1       0.719   0.726   0.240  1.00  0.00     0.028 A 
ATOM     11  C   UNL     1      -1.642   0.264  -0.215  1.00  0.00     0.057 A 
ATOM     12  C   UNL     1       2.056   0.261   0.347  1.00  0.00     0.154 A 
ATOM     13  C   UNL     1       0.374   2.075   0.468  1.00  0.00     0.016 A 
ATOM     14  C   UNL     1      -1.966   1.602   0.051  1.00  0.00     0.128 A 
ATOM     15  C   UNL     1      -0.951   2.501   0.370  1.00  0.00     0.048 A 
BRANCH  12  16
ATOM     16  O   UNL     1       3.102   1.075   0.798  1.00  0.00    -0.505 OA
ATOM     17  H   UNL     1       2.992   2.013   1.154  1.00  0.00     0.293 HD
ENDBRANCH  12  16
BRANCH  14  18
ATOM     18  O   UNL     1      -3.281   2.080  -0.045  1.00  0.00    -0.457 OA
BRANCH  18  19
ATOM     19  C   UNL     1      -4.439   1.339   0.238  1.00  0.00     0.127 A 
ATOM     20  C   UNL     1      -4.452   0.318   1.208  1.00  0.00     0.047 A 
ATOM     21  C   UNL     1      -5.624   1.660  -0.435  1.00  0.00     0.047 A 
ATOM     22  C   UNL     1      -5.631  -0.387   1.470  1.00  0.00     0.004 A 
ATOM     23  C   UNL     1      -6.802   0.955  -0.169  1.00  0.00     0.004 A 
ATOM     24  C   UNL     1      -6.805  -0.071   0.780  1.00  0.00     0.000 A 
ENDBRANCH  18  19
ENDBRANCH  14  18
ENDBRANCH   1   5
BRANCH   3  25
ATOM     25  C   UNL     1       6.209  -1.302  -0.114  1.00  0.00     0.238 C 
BRANCH  25  26
ATOM     26  C   UNL     1       7.194  -0.278  -0.582  1.00  0.00     0.322 C 
ATOM     27  O   UNL     1       7.860  -0.472  -1.634  1.00  0.00    -0.250 OA
BRANCH  26  28
ATOM     28  O   UNL     1       7.353   0.905   0.134  1.00  0.00    -0.480 OA
ATOM     29  H   UNL     1       8.009   1.614  -0.174  1.00  0.00     0.296 HD
ENDBRANCH  26  28
ENDBRANCH  25  26
ENDBRANCH   3  25
TORSDOF 7
