REMARK SMILES CN(C)C/C=C(/c1ccc(Br)cc1)c1cccnc1
REMARK SMILES IDX 4 1 2 2 1 3 3 4 5 5 6 6 7 7 8 8 13 9 9 10 12 11 10 12 11 13
REMARK SMILES IDX 14 14 15 15 19 16 16 17 18 18 17 19
REMARK H PARENT
REMARK Flexibility Score: inf
ROOT
ATOM      1  C   UNL     1      -2.011   0.072   0.015  1.00  0.00     0.112 C 
ENDROOT
BRANCH   1   2
ATOM      2  N   UNL     1      -3.168  -0.847  -0.044  1.00  0.00    -0.306 NA
ATOM      3  C   UNL     1      -3.377  -1.508   1.257  1.00  0.00     0.105 C 
ATOM      4  C   UNL     1      -4.384  -0.107  -0.418  1.00  0.00     0.105 C 
ENDBRANCH   1   2
BRANCH   1   5
ATOM      5  C   UNL     1      -0.718  -0.696  -0.099  1.00  0.00    -0.002 C 
ATOM      6  C   UNL     1       0.494  -0.107  -0.149  1.00  0.00    -0.012 C 
BRANCH   6   7
ATOM      7  C   UNL     1       1.719  -0.923  -0.374  1.00  0.00    -0.018 A 
ATOM      8  C   UNL     1       1.717  -2.008  -1.272  1.00  0.00     0.010 A 
ATOM      9  C   UNL     1       2.915  -0.598   0.294  1.00  0.00     0.010 A 
ATOM     10  C   UNL     1       2.879  -2.757  -1.483  1.00  0.00     0.016 A 
ATOM     11  C   UNL     1       4.074  -1.349   0.081  1.00  0.00     0.016 A 
ATOM     12  C   UNL     1       4.057  -2.430  -0.806  1.00  0.00     0.018 A 
ATOM     13  Br  UNL     1       5.642  -3.453  -1.097  1.00  0.00    -0.051 Br
ENDBRANCH   6   7
BRANCH   6  14
ATOM     14  C   UNL     1       0.643   1.360  -0.007  1.00  0.00     0.000 A 
ATOM     15  C   UNL     1       0.360   2.000   1.209  1.00  0.00     0.012 A 
ATOM     16  C   UNL     1       1.130   2.126  -1.075  1.00  0.00     0.119 A 
ATOM     17  C   UNL     1       0.535   3.380   1.327  1.00  0.00     0.021 A 
ATOM     18  N   UNL     1       1.293   3.469  -0.935  1.00  0.00    -0.264 NA
ATOM     19  C   UNL     1       1.005   4.106   0.231  1.00  0.00     0.111 A 
ENDBRANCH   6  14
ENDBRANCH   1   5
TORSDOF 4
