REMARK SMILES CCCCc1oc2ccc(NS(C)(=O)=O)cc2c1C(=O)c1ccc(OCCCN(CCCC)CCCC)cc1
REMARK SMILES IDX 26 1 27 2 28 3 29 4 30 5 31 6 32 7 33 8 34 9 35 10 36 11
REMARK SMILES IDX 37 12 25 13 24 14 23 15 38 16 22 17 39 18 21 19 19 20 20 21
REMARK SMILES IDX 18 22 5 23 17 24 6 25 7 26 16 27 8 28 10 29 9 30 4 31 3 32
REMARK SMILES IDX 2 33 1 34 11 35 12 37 13 38 14 39 15 40
REMARK H PARENT 11 36
REMARK Flexibility Score: inf
ROOT
ATOM      1  C   UNL     1       2.319   1.336   2.239  1.00  0.00     0.231 C 
ENDROOT
BRANCH   1   2
ATOM      2  C   UNL     1       3.321   1.187   1.089  1.00  0.00     0.057 C 
BRANCH   2   3
ATOM      3  C   UNL     1       4.624   0.517   1.571  1.00  0.00     0.088 C 
BRANCH   3   4
ATOM      4  N   UNL     1       5.566   0.172   0.477  1.00  0.00    -0.303 NA
BRANCH   4   5
ATOM      5  C   UNL     1       5.167  -1.053  -0.258  1.00  0.00     0.084 C 
BRANCH   5   6
ATOM      6  C   UNL     1       5.958  -2.266   0.256  1.00  0.00     0.015 C 
BRANCH   6   7
ATOM      7  C   UNL     1       7.482  -2.125   0.097  1.00  0.00    -0.002 C 
ATOM      8  C   UNL     1       7.931  -2.184  -1.361  1.00  0.00     0.004 C 
ENDBRANCH   6   7
ENDBRANCH   5   6
ENDBRANCH   4   5
BRANCH   4   9
ATOM      9  C   UNL     1       5.910   1.290  -0.436  1.00  0.00     0.084 C 
BRANCH   9  10
ATOM     10  C   UNL     1       6.596   2.465   0.288  1.00  0.00     0.015 C 
BRANCH  10  11
ATOM     11  C   UNL     1       7.861   2.056   1.064  1.00  0.00    -0.002 C 
ATOM     12  C   UNL     1       9.043   1.760   0.141  1.00  0.00     0.004 C 
ENDBRANCH  10  11
ENDBRANCH   9  10
ENDBRANCH   4   9
ENDBRANCH   3   4
ENDBRANCH   2   3
ENDBRANCH   1   2
BRANCH   1  13
ATOM     13  O   UNL     1       1.088   1.876   1.757  1.00  0.00    -0.494 OA
BRANCH  13  14
ATOM     14  C   UNL     1       0.120   1.168   1.025  1.00  0.00     0.119 A 
ATOM     15  C   UNL     1       0.189  -0.221   0.815  1.00  0.00     0.047 A 
ATOM     16  C   UNL     1      -0.957   1.883   0.489  1.00  0.00     0.047 A 
ATOM     17  C   UNL     1      -0.816  -0.879   0.100  1.00  0.00     0.016 A 
ATOM     18  C   UNL     1      -1.953   1.228  -0.241  1.00  0.00     0.016 A 
ATOM     19  C   UNL     1      -1.906  -0.165  -0.425  1.00  0.00     0.023 A 
BRANCH  19  20
ATOM     20  C   UNL     1      -2.961  -0.880  -1.186  1.00  0.00     0.197 C 
ATOM     21  O   UNL     1      -2.696  -1.998  -1.701  1.00  0.00    -0.288 OA
BRANCH  20  22
ATOM     22  C   UNL     1      -4.321  -0.327  -1.362  1.00  0.00     0.072 A 
ATOM     23  C   UNL     1      -5.103  -0.334  -2.524  1.00  0.00     0.116 A 
ATOM     24  C   UNL     1      -5.126   0.270  -0.407  1.00  0.00     0.034 A 
ATOM     25  O   UNL     1      -6.276   0.226  -2.290  1.00  0.00    -0.460 OA
ATOM     26  C   UNL     1      -6.302   0.589  -1.033  1.00  0.00     0.135 A 
ATOM     27  C   UNL     1      -4.934   0.517   0.954  1.00  0.00     0.039 A 
ATOM     28  C   UNL     1      -7.349   1.205  -0.358  1.00  0.00     0.050 A 
ATOM     29  C   UNL     1      -5.967   1.155   1.676  1.00  0.00     0.049 A 
ATOM     30  C   UNL     1      -7.176   1.496   1.006  1.00  0.00     0.030 A 
BRANCH  23  31
ATOM     31  C   UNL     1      -4.723  -0.881  -3.870  1.00  0.00     0.076 C 
BRANCH  31  32
ATOM     32  C   UNL     1      -5.555  -2.120  -4.227  1.00  0.00     0.008 C 
BRANCH  32  33
ATOM     33  C   UNL     1      -5.206  -3.330  -3.350  1.00  0.00    -0.003 C 
ATOM     34  C   UNL     1      -6.034  -4.550  -3.742  1.00  0.00     0.004 C 
ENDBRANCH  32  33
ENDBRANCH  31  32
ENDBRANCH  23  31
BRANCH  29  35
ATOM     35  N   UNL     1      -5.767   1.439   3.073  1.00  0.00    -0.284 N 
ATOM     36  H   UNL     1      -4.893   1.102   3.535  1.00  0.00     0.180 HD
BRANCH  35  37
ATOM     37  S   UNL     1      -6.839   2.400   4.043  1.00  0.00     0.229 S 
ATOM     38  C   UNL     1      -8.293   1.464   4.470  1.00  0.00     0.183 C 
ATOM     39  O   UNL     1      -6.133   2.797   5.307  1.00  0.00    -0.207 OA
ATOM     40  O   UNL     1      -7.218   3.652   3.297  1.00  0.00    -0.207 OA
ENDBRANCH  35  37
ENDBRANCH  29  35
ENDBRANCH  20  22
ENDBRANCH  19  20
ENDBRANCH  13  14
ENDBRANCH   1  13
TORSDOF 18
