REMARK SMILES CC(C)=CCC/C(C)=C/CC/C(C)=C/CSP(=O)(O)OP(=O)(O)O
REMARK SMILES IDX 12 1 13 2 14 3 11 4 10 5 9 6 7 7 8 8 6 9 5 10 4 11 2 12 1 13
REMARK SMILES IDX 3 14 15 15 16 16 17 17 18 18 19 19 20 21 21 22 22 23 23 24
REMARK SMILES IDX 24 26
REMARK H PARENT 19 20 23 25 24 27
REMARK Flexibility Score: inf
ROOT
ATOM      1  C   UNL     1       1.601  -0.621  -0.640  1.00  0.00    -0.076 C 
ATOM      2  C   UNL     1       2.179   0.372  -1.621  1.00  0.00     0.039 C 
ATOM      3  C   UNL     1       2.200  -0.869   0.545  1.00  0.00    -0.017 C 
ENDROOT
BRANCH   1   4
ATOM      4  C   UNL     1       0.323  -1.352  -0.990  1.00  0.00     0.034 C 
BRANCH   4   5
ATOM      5  C   UNL     1      -0.863  -0.788  -0.199  1.00  0.00     0.032 C 
BRANCH   5   6
ATOM      6  C   UNL     1      -2.146  -1.467  -0.605  1.00  0.00    -0.028 C 
ATOM      7  C   UNL     1      -2.943  -1.055  -1.616  1.00  0.00    -0.077 C 
ATOM      8  C   UNL     1      -2.630   0.184  -2.423  1.00  0.00     0.039 C 
BRANCH   7   9
ATOM      9  C   UNL     1      -4.195  -1.845  -1.936  1.00  0.00     0.034 C 
BRANCH   9  10
ATOM     10  C   UNL     1      -5.312  -1.585  -0.917  1.00  0.00     0.032 C 
BRANCH  10  11
ATOM     11  C   UNL     1      -5.787  -0.151  -0.987  1.00  0.00    -0.028 C 
ATOM     12  C   UNL     1      -5.595   0.775  -0.021  1.00  0.00    -0.080 C 
ATOM     13  C   UNL     1      -4.906   0.449   1.281  1.00  0.00     0.039 C 
ATOM     14  C   UNL     1      -6.088   2.175  -0.267  1.00  0.00     0.039 C 
ENDBRANCH  10  11
ENDBRANCH   9  10
ENDBRANCH   7   9
ENDBRANCH   5   6
ENDBRANCH   4   5
ENDBRANCH   1   4
BRANCH   3  15
ATOM     15  C   UNL     1       3.474  -0.194   0.980  1.00  0.00     0.109 C 
BRANCH  15  16
ATOM     16  S   UNL     1       3.935  -0.740   2.658  1.00  0.00    -0.036 SA
BRANCH  16  17
ATOM     17  P   UNL     1       5.749   0.357   2.687  1.00  0.00     0.395 P 
ATOM     18  O   UNL     1       5.441   1.821   2.458  1.00  0.00    -0.247 OA
BRANCH  17  19
ATOM     19  O   UNL     1       6.473   0.156   4.204  1.00  0.00    -0.316 OA
ATOM     20  H   UNL     1       5.785   0.452   4.854  1.00  0.00     0.222 HD
ENDBRANCH  17  19
BRANCH  17  21
ATOM     21  O   UNL     1       6.767  -0.258   1.467  1.00  0.00    -0.199 OA
BRANCH  21  22
ATOM     22  P   UNL     1       8.128   0.761   1.366  1.00  0.00     0.477 P 
ATOM     23  O   UNL     1       9.122   0.145   0.408  1.00  0.00    -0.228 OA
BRANCH  22  24
ATOM     24  O   UNL     1       7.677   2.283   0.778  1.00  0.00    -0.302 OA
ATOM     25  H   UNL     1       7.201   2.095  -0.071  1.00  0.00     0.223 HD
ENDBRANCH  22  24
BRANCH  22  26
ATOM     26  O   UNL     1       8.868   0.939   2.880  1.00  0.00    -0.302 OA
ATOM     27  H   UNL     1       9.152   0.023   3.129  1.00  0.00     0.223 HD
ENDBRANCH  22  26
ENDBRANCH  21  22
ENDBRANCH  17  21
ENDBRANCH  16  17
ENDBRANCH  15  16
ENDBRANCH   3  15
TORSDOF 14
