REMARK SMILES Cc1ccc(C(=O)Nc2ccc(S(=O)(=O)O)c3cc(S(=O)(=O)O)cc(S(=O)(=O)O)c23)cc1NC(=O)c1cccc(NC(=O)Nc2cccc(C(=O)Nc3cc(C(=O)Nc4ccc(S(=O)(=O)O)c5cc(S(=O)(=O)O)cc(S(=O)(=O)O)c45)ccc3C)c2)c1
REMARK SMILES IDX 41 1 42 2 43 3 44 4 40 7 36 8 86 9 37 10 38 11 39 12 34 13
REMARK SMILES IDX 33 14 35 16 32 17 1 18 2 19 3 20 31 21 4 22 5 23 6 24 7 25
REMARK SMILES IDX 8 26 9 28 30 29 10 30 17 31 25 32 11 33 18 34 12 35 24 36
REMARK SMILES IDX 19 37 26 38 27 39 28 40 29 41 13 43 14 44 15 45 16 46 20 48
REMARK SMILES IDX 21 49 22 50 23 51 45 53 46 54 85 55 47 56 49 57 48 58 50 59
REMARK SMILES IDX 51 60 52 61 53 63 83 64 54 65 84 66 82 67 55 68 81 69 56 70
REMARK SMILES IDX 57 71 58 72 59 74 80 75 60 76 67 77 75 78 61 79 68 80 62 81
REMARK SMILES IDX 74 82 69 83 76 84 77 85 78 86 79 87 63 89 64 90 65 91 66 92
REMARK SMILES IDX 70 94 71 95 72 96 73 97
REMARK H PARENT 41 5 44 6 33 15 8 27 29 42 16 47 23 52 52 62 58 73 79 88 66 93
REMARK H PARENT 73 98
REMARK Flexibility Score: inf
ROOT
ATOM      1  N   UNL     1      -1.944   2.255  -0.539  1.00  0.00    -0.308 N 
ATOM      2  C   UNL     1      -0.649   2.814  -0.272  1.00  0.00     0.323 C 
ATOM      3  O   UNL     1      -0.464   3.523   0.754  1.00  0.00    -0.248 OA
ATOM      4  N   UNL     1       0.451   2.505  -1.145  1.00  0.00    -0.308 N 
ATOM      5  H   UNL     1      -2.012   1.486  -1.245  1.00  0.00     0.171 HD
ATOM      6  H   UNL     1       0.343   1.685  -1.782  1.00  0.00     0.171 HD
ENDROOT
BRANCH   1   7
ATOM      7  C   UNL     1      -3.112   2.573   0.233  1.00  0.00     0.043 A 
ATOM      8  C   UNL     1      -5.147   1.831   1.371  1.00  0.00     0.042 A 
ATOM      9  C   UNL     1      -4.026   1.558   0.561  1.00  0.00     0.040 A 
ATOM     10  C   UNL     1      -5.375   3.156   1.788  1.00  0.00     0.014 A 
ATOM     11  C   UNL     1      -4.496   4.176   1.423  1.00  0.00     0.003 A 
ATOM     12  C   UNL     1      -3.368   3.891   0.653  1.00  0.00     0.026 A 
BRANCH   8  13
ATOM     13  C   UNL     1      -6.079   0.751   1.786  1.00  0.00     0.255 C 
ATOM     14  N   UNL     1      -5.722  -0.634   1.658  1.00  0.00    -0.322 N 
ATOM     15  H   UNL     1      -4.711  -0.885   1.631  1.00  0.00     0.170 HD
ATOM     16  O   UNL     1      -7.171   1.062   2.340  1.00  0.00    -0.269 OA
BRANCH  14  17
ATOM     17  C   UNL     1      -6.695  -1.699   1.660  1.00  0.00     0.045 A 
ATOM     18  C   UNL     1      -5.029  -3.236   2.817  1.00  0.00     0.046 C 
ATOM     19  C   UNL     1      -6.381  -2.964   2.210  1.00  0.00    -0.027 A 
ATOM     20  C   UNL     1      -7.344  -3.985   2.191  1.00  0.00     0.006 A 
ATOM     21  C   UNL     1      -7.965  -1.500   1.081  1.00  0.00     0.040 A 
ATOM     22  C   UNL     1      -8.610  -3.760   1.646  1.00  0.00     0.014 A 
ATOM     23  C   UNL     1      -8.931  -2.519   1.081  1.00  0.00     0.042 A 
BRANCH  23  24
ATOM     24  C   UNL     1     -10.278  -2.292   0.506  1.00  0.00     0.255 C 
ATOM     25  O   UNL     1     -11.252  -2.984   0.915  1.00  0.00    -0.269 OA
ATOM     26  N   UNL     1     -10.488  -1.309  -0.521  1.00  0.00    -0.321 N 
ATOM     27  H   UNL     1      -9.658  -0.965  -1.053  1.00  0.00     0.170 HD
BRANCH  26  28
ATOM     28  C   UNL     1     -11.760  -1.189  -1.166  1.00  0.00     0.050 A 
ATOM     29  C   UNL     1     -12.848  -0.464  -0.598  1.00  0.00     0.028 A 
ATOM     30  C   UNL     1     -11.954  -1.958  -2.314  1.00  0.00     0.028 A 
ATOM     31  C   UNL     1     -14.160  -0.698  -1.127  1.00  0.00     0.008 A 
ATOM     32  C   UNL     1     -12.701   0.489   0.464  1.00  0.00     0.105 A 
ATOM     33  C   UNL     1     -13.213  -2.110  -2.871  1.00  0.00     0.025 A 
ATOM     34  C   UNL     1     -15.273  -0.104  -0.498  1.00  0.00     0.033 A 
ATOM     35  C   UNL     1     -14.329  -1.520  -2.276  1.00  0.00     0.102 A 
ATOM     36  C   UNL     1     -13.844   1.029   1.068  1.00  0.00     0.046 A 
ATOM     37  C   UNL     1     -15.119   0.720   0.610  1.00  0.00     0.096 A 
BRANCH  32  38
ATOM     38  S   UNL     1     -11.153   1.193   0.982  1.00  0.00     0.295 S 
ATOM     39  O   UNL     1     -10.480   0.296   1.982  1.00  0.00    -0.194 OA
ATOM     40  O   UNL     1     -10.249   1.412  -0.198  1.00  0.00    -0.194 OA
BRANCH  38  41
ATOM     41  O   UNL     1     -11.416   2.696   1.693  1.00  0.00    -0.282 OA
ATOM     42  H   UNL     1     -11.524   2.514   2.662  1.00  0.00     0.234 HD
ENDBRANCH  38  41
ENDBRANCH  32  38
BRANCH  35  43
ATOM     43  S   UNL     1     -15.915  -1.840  -3.007  1.00  0.00     0.295 S 
ATOM     44  O   UNL     1     -16.794  -2.544  -2.010  1.00  0.00    -0.194 OA
ATOM     45  O   UNL     1     -16.548  -0.542  -3.425  1.00  0.00    -0.194 OA
BRANCH  43  46
ATOM     46  O   UNL     1     -15.748  -2.819  -4.366  1.00  0.00    -0.282 OA
ATOM     47  H   UNL     1     -16.671  -2.972  -4.688  1.00  0.00     0.234 HD
ENDBRANCH  43  46
ENDBRANCH  35  43
BRANCH  37  48
ATOM     48  S   UNL     1     -16.535   1.443   1.372  1.00  0.00     0.294 S 
ATOM     49  O   UNL     1     -16.236   1.787   2.805  1.00  0.00    -0.194 OA
ATOM     50  O   UNL     1     -17.676   0.465   1.342  1.00  0.00    -0.194 OA
BRANCH  48  51
ATOM     51  O   UNL     1     -16.974   2.834   0.541  1.00  0.00    -0.282 OA
ATOM     52  H   UNL     1     -16.185   3.432   0.607  1.00  0.00     0.234 HD
ENDBRANCH  48  51
ENDBRANCH  37  48
ENDBRANCH  26  28
ENDBRANCH  23  24
ENDBRANCH  14  17
ENDBRANCH   8  13
ENDBRANCH   1   7
BRANCH   4  53
ATOM     53  C   UNL     1       1.727   3.171  -1.101  1.00  0.00     0.043 A 
ATOM     54  C   UNL     1       1.831   4.533  -0.770  1.00  0.00     0.026 A 
ATOM     55  C   UNL     1       2.886   2.460  -1.454  1.00  0.00     0.040 A 
ATOM     56  C   UNL     1       3.077   5.159  -0.754  1.00  0.00     0.003 A 
ATOM     57  C   UNL     1       4.151   3.088  -1.463  1.00  0.00     0.042 A 
ATOM     58  C   UNL     1       4.225   4.445  -1.095  1.00  0.00     0.014 A 
BRANCH  57  59
ATOM     59  C   UNL     1       5.403   2.366  -1.836  1.00  0.00     0.255 C 
ATOM     60  O   UNL     1       6.495   3.000  -1.836  1.00  0.00    -0.269 OA
ATOM     61  N   UNL     1       5.408   0.975  -2.220  1.00  0.00    -0.322 N 
ATOM     62  H   UNL     1       4.524   0.527  -2.550  1.00  0.00     0.170 HD
BRANCH  61  63
ATOM     63  C   UNL     1       6.623   0.206  -2.320  1.00  0.00     0.045 A 
ATOM     64  C   UNL     1       6.820  -0.694  -3.390  1.00  0.00    -0.027 A 
ATOM     65  C   UNL     1       7.612   0.320  -1.325  1.00  0.00     0.040 A 
ATOM     66  C   UNL     1       5.766  -0.890  -4.445  1.00  0.00     0.046 C 
ATOM     67  C   UNL     1       8.011  -1.435  -3.458  1.00  0.00     0.006 A 
ATOM     68  C   UNL     1       8.805  -0.421  -1.397  1.00  0.00     0.042 A 
ATOM     69  C   UNL     1       8.995  -1.293  -2.479  1.00  0.00     0.014 A 
BRANCH  68  70
ATOM     70  C   UNL     1       9.809  -0.302  -0.312  1.00  0.00     0.255 C 
ATOM     71  O   UNL     1       9.417   0.011   0.848  1.00  0.00    -0.269 OA
ATOM     72  N   UNL     1      11.211  -0.539  -0.544  1.00  0.00    -0.321 N 
ATOM     73  H   UNL     1      11.536  -0.831  -1.490  1.00  0.00     0.170 HD
BRANCH  72  74
ATOM     74  C   UNL     1      12.230  -0.165   0.403  1.00  0.00     0.050 A 
ATOM     75  C   UNL     1      13.392  -0.966   0.622  1.00  0.00     0.028 A 
ATOM     76  C   UNL     1      12.165   1.121   0.955  1.00  0.00     0.028 A 
ATOM     77  C   UNL     1      14.516  -0.366   1.279  1.00  0.00     0.008 A 
ATOM     78  C   UNL     1      13.496  -2.338   0.220  1.00  0.00     0.105 A 
ATOM     79  C   UNL     1      13.214   1.644   1.693  1.00  0.00     0.025 A 
ATOM     80  C   UNL     1      15.737  -1.066   1.339  1.00  0.00     0.033 A 
ATOM     81  C   UNL     1      14.400   0.930   1.852  1.00  0.00     0.102 A 
ATOM     82  C   UNL     1      14.742  -2.979   0.271  1.00  0.00     0.046 A 
ATOM     83  C   UNL     1      15.858  -2.347   0.812  1.00  0.00     0.096 A 
BRANCH  78  84
ATOM     84  S   UNL     1      12.111  -3.391  -0.144  1.00  0.00     0.295 S 
ATOM     85  O   UNL     1      12.448  -4.811   0.216  1.00  0.00    -0.194 OA
ATOM     86  O   UNL     1      11.798  -3.334  -1.611  1.00  0.00    -0.194 OA
BRANCH  84  87
ATOM     87  O   UNL     1      10.762  -2.951   0.756  1.00  0.00    -0.282 OA
ATOM     88  H   UNL     1      11.088  -2.875   1.688  1.00  0.00     0.234 HD
ENDBRANCH  84  87
ENDBRANCH  78  84
BRANCH  81  89
ATOM     89  S   UNL     1      15.702   1.686   2.793  1.00  0.00     0.295 S 
ATOM     90  O   UNL     1      16.870   1.981   1.892  1.00  0.00    -0.194 OA
ATOM     91  O   UNL     1      15.224   2.971   3.412  1.00  0.00    -0.194 OA
BRANCH  89  92
ATOM     92  O   UNL     1      16.174   0.639   4.023  1.00  0.00    -0.282 OA
ATOM     93  H   UNL     1      16.875   1.127   4.523  1.00  0.00     0.234 HD
ENDBRANCH  89  92
ENDBRANCH  81  89
BRANCH  83  94
ATOM     94  S   UNL     1      17.415  -3.176   0.866  1.00  0.00     0.294 S 
ATOM     95  O   UNL     1      17.224  -4.662   0.733  1.00  0.00    -0.194 OA
ATOM     96  O   UNL     1      18.086  -2.894   2.180  1.00  0.00    -0.194 OA
BRANCH  94  97
ATOM     97  O   UNL     1      18.390  -2.622  -0.387  1.00  0.00    -0.282 OA
ATOM     98  H   UNL     1      17.868  -2.790  -1.213  1.00  0.00     0.234 HD
ENDBRANCH  94  97
ENDBRANCH  83  94
ENDBRANCH  72  74
ENDBRANCH  68  70
ENDBRANCH  61  63
ENDBRANCH  57  59
ENDBRANCH   4  53
TORSDOF 22
