REMARK SMILES CN(C)CCC(O)(c1ccccc1)c1ccccc1Cl
REMARK SMILES IDX 5 1 4 2 2 3 1 4 3 5 6 6 7 7 8 9 9 10 13 11 10 12 12 13 11 14
REMARK SMILES IDX 14 15 15 16 19 17 16 18 18 19 20 20 17 21
REMARK H PARENT 7 8
REMARK Flexibility Score: inf
ROOT
ATOM      1  C   UNL     1       1.082  -0.348  -0.101  1.00  0.00     0.061 C 
ENDROOT
BRANCH   1   2
ATOM      2  C   UNL     1       2.045   0.516   0.753  1.00  0.00     0.087 C 
BRANCH   2   3
ATOM      3  N   UNL     1       3.420   0.613   0.212  1.00  0.00    -0.309 NA
ATOM      4  C   UNL     1       3.474   1.256  -1.110  1.00  0.00     0.104 C 
ATOM      5  C   UNL     1       4.133  -0.674   0.210  1.00  0.00     0.104 C 
ENDBRANCH   2   3
ENDBRANCH   1   2
BRANCH   1   6
ATOM      6  C   UNL     1      -0.333  -0.505   0.542  1.00  0.00     0.117 C 
BRANCH   6   7
ATOM      7  O   UNL     1      -0.172  -1.141   1.793  1.00  0.00    -0.380 OA
ATOM      8  H   UNL     1       0.215  -2.042   1.636  1.00  0.00     0.212 HD
ENDBRANCH   6   7
BRANCH   6   9
ATOM      9  C   UNL     1      -1.299  -1.377  -0.278  1.00  0.00    -0.012 A 
ATOM     10  C   UNL     1      -2.613  -1.562   0.203  1.00  0.00     0.007 A 
ATOM     11  C   UNL     1      -0.923  -2.048  -1.465  1.00  0.00     0.007 A 
ATOM     12  C   UNL     1      -3.525  -2.361  -0.491  1.00  0.00     0.000 A 
ATOM     13  C   UNL     1      -1.842  -2.845  -2.154  1.00  0.00     0.000 A 
ATOM     14  C   UNL     1      -3.141  -3.000  -1.670  1.00  0.00     0.000 A 
ENDBRANCH   6   9
BRANCH   6  15
ATOM     15  C   UNL     1      -0.958   0.892   0.748  1.00  0.00     0.007 A 
ATOM     16  C   UNL     1      -1.061   1.428   2.054  1.00  0.00     0.008 A 
ATOM     17  C   UNL     1      -1.405   1.701  -0.338  1.00  0.00     0.047 A 
ATOM     18  C   UNL     1      -1.602   2.695   2.275  1.00  0.00     0.001 A 
ATOM     19  C   UNL     1      -1.946   2.970  -0.095  1.00  0.00     0.021 A 
ATOM     20  Cl  UNL     1      -1.319   1.198  -2.024  1.00  0.00    -0.084 Cl
ATOM     21  C   UNL     1      -2.047   3.463   1.204  1.00  0.00     0.002 A 
ENDBRANCH   6  15
ENDBRANCH   1   6
TORSDOF 6
