REMARK SMILES Cc1nnc(C(C)C)n1[C@@H]1C[C@H]2CC[C@@H](C1)N2CC[C@H](NC(=O)C1CCC(F)(F)CC1)c1ccccc1
REMARK SMILES IDX 18 1 17 2 10 3 16 4 11 5 15 6 12 7 14 8 13 9 9 10 5 11 4 12
REMARK SMILES IDX 3 13 2 14 1 15 6 16 7 17 8 18 19 19 20 20 21 21 22 22 23 24
REMARK SMILES IDX 24 25 25 26 31 27 26 28 30 29 27 30 28 31 29 32 32 33 33 34
REMARK SMILES IDX 37 35 34 36 36 37 35 38
REMARK H PARENT 21 23
REMARK Flexibility Score: inf
ROOT
ATOM      1  C   UNL     1      -0.229  -1.210   1.259  1.00  0.00     0.087 C 
ENDROOT
BRANCH   1   2
ATOM      2  N   UNL     1      -1.617  -1.102   0.759  1.00  0.00    -0.297 NA
ATOM      3  C   UNL     1      -4.306  -1.304  -0.233  1.00  0.00     0.093 C 
ATOM      4  C   UNL     1      -3.085  -1.048  -1.166  1.00  0.00     0.044 C 
ATOM      5  C   UNL     1      -3.972  -1.350   1.286  1.00  0.00     0.044 C 
ATOM      6  C   UNL     1      -1.791  -1.667  -0.587  1.00  0.00     0.059 C 
ATOM      7  C   UNL     1      -2.555  -1.911   1.547  1.00  0.00     0.059 C 
ATOM      8  C   UNL     1      -1.931  -3.188  -0.408  1.00  0.00     0.021 C 
ATOM      9  C   UNL     1      -2.424  -3.352   1.027  1.00  0.00     0.021 C 
BRANCH   3  10
ATOM     10  N   UNL     1      -5.486  -0.446  -0.505  1.00  0.00    -0.312 N 
ATOM     11  C   UNL     1      -5.675   0.911  -0.540  1.00  0.00     0.135 A 
ATOM     12  N   UNL     1      -6.984   1.211  -0.666  1.00  0.00    -0.135 NA
ATOM     13  N   UNL     1      -7.661   0.078  -0.682  1.00  0.00    -0.136 NA
ATOM     14  C   UNL     1      -6.761  -0.912  -0.578  1.00  0.00     0.130 A 
ATOM     15  C   UNL     1      -7.168  -2.354  -0.518  1.00  0.00     0.090 C 
BRANCH  11  16
ATOM     16  C   UNL     1      -4.654   2.038  -0.578  1.00  0.00     0.051 C 
ATOM     17  C   UNL     1      -4.034   2.218  -1.978  1.00  0.00     0.016 C 
ATOM     18  C   UNL     1      -3.635   2.043   0.566  1.00  0.00     0.016 C 
ENDBRANCH  11  16
ENDBRANCH   3  10
ENDBRANCH   1   2
BRANCH   1  19
ATOM     19  C   UNL     1       0.634  -0.067   0.698  1.00  0.00     0.045 C 
BRANCH  19  20
ATOM     20  C   UNL     1       2.023  -0.001   1.364  1.00  0.00     0.113 C 
BRANCH  20  21
ATOM     21  N   UNL     1       2.780   1.140   0.841  1.00  0.00    -0.349 N 
ATOM     22  C   UNL     1       3.920   1.668   1.537  1.00  0.00     0.223 C 
ATOM     23  H   UNL     1       2.617   1.433  -0.150  1.00  0.00     0.164 HD
ATOM     24  O   UNL     1       4.058   1.454   2.774  1.00  0.00    -0.275 OA
BRANCH  22  25
ATOM     25  C   UNL     1       4.972   2.465   0.807  1.00  0.00     0.079 C 
ATOM     26  C   UNL     1       5.598   1.626  -0.325  1.00  0.00     0.019 C 
ATOM     27  C   UNL     1       4.391   3.784   0.262  1.00  0.00     0.019 C 
ATOM     28  C   UNL     1       6.663   2.430  -1.082  1.00  0.00     0.077 C 
ATOM     29  C   UNL     1       5.462   4.582  -0.494  1.00  0.00     0.077 C 
ATOM     30  C   UNL     1       6.089   3.749  -1.625  1.00  0.00     0.248 C 
ATOM     31  F   UNL     1       7.109   4.478  -2.210  1.00  0.00    -0.207 F 
ATOM     32  F   UNL     1       5.134   3.479  -2.592  1.00  0.00    -0.207 F 
ENDBRANCH  22  25
ENDBRANCH  20  21
BRANCH  20  33
ATOM     33  C   UNL     1       2.809  -1.277   1.134  1.00  0.00    -0.026 A 
ATOM     34  C   UNL     1       3.022  -2.175   2.195  1.00  0.00     0.006 A 
ATOM     35  C   UNL     1       3.311  -1.592  -0.143  1.00  0.00     0.006 A 
ATOM     36  C   UNL     1       3.736  -3.358   1.984  1.00  0.00     0.000 A 
ATOM     37  C   UNL     1       4.026  -2.777  -0.349  1.00  0.00     0.000 A 
ATOM     38  C   UNL     1       4.239  -3.657   0.715  1.00  0.00     0.000 A 
ENDBRANCH  20  33
ENDBRANCH  19  20
ENDBRANCH   1  19
TORSDOF 8
