REMARK SMILES C[C@]12CC[C@@H]3c4ccc(OS(=O)(=O)O)cc4CC[C@H]3[C@@H]1CCC2=O
REMARK SMILES IDX 11 1 12 2 13 3 10 4 9 5 20 6 21 7 2 8 19 9 22 10 23 11 1 12
REMARK SMILES IDX 3 13 5 14 18 15 24 16 4 17 6 18 17 19 16 20 7 21 15 22 8 23
REMARK SMILES IDX 14 24
REMARK H PARENT 14 25
REMARK Flexibility Score: inf
ROOT
ATOM      1  S   UNL     1       6.662   0.088   0.740  1.00  0.00     0.446 S 
ATOM      2  O   UNL     1       6.750  -1.406   0.876  1.00  0.00    -0.158 OA
ATOM      3  O   UNL     1       7.974   0.621   0.236  1.00  0.00    -0.158 OA
ENDROOT
BRANCH   1   4
ATOM      4  O   UNL     1       5.431   0.494  -0.376  1.00  0.00    -0.362 OA
BRANCH   4   5
ATOM      5  C   UNL     1       4.075   0.177  -0.218  1.00  0.00     0.145 A 
ATOM      6  C   UNL     1      -2.494  -0.262  -0.685  1.00  0.00     0.006 C 
ATOM      7  C   UNL     1      -3.575   0.374  -1.560  1.00  0.00     0.013 C 
ATOM      8  C   UNL     1      -3.030  -0.168   0.751  1.00  0.00     0.029 C 
ATOM      9  C   UNL     1      -1.032   0.206  -0.766  1.00  0.00     0.001 C 
ATOM     10  C   UNL     1      -4.883  -0.099  -0.899  1.00  0.00     0.076 C 
ATOM     11  C   UNL     1      -4.470  -0.463   0.495  1.00  0.00     0.139 C 
ATOM     12  C   UNL     1      -2.966   1.246   1.392  1.00  0.00     0.020 C 
ATOM     13  C   UNL     1      -2.258  -1.192   1.605  1.00  0.00     0.015 C 
ATOM     14  C   UNL     1      -0.170  -0.772   0.091  1.00  0.00     0.023 C 
ATOM     15  C   UNL     1      -0.497   0.208  -2.202  1.00  0.00     0.009 C 
ATOM     16  O   UNL     1      -5.243  -0.889   1.340  1.00  0.00    -0.299 OA
ATOM     17  C   UNL     1      -0.728  -0.924   1.544  1.00  0.00     0.010 C 
ATOM     18  C   UNL     1       1.306  -0.379   0.021  1.00  0.00    -0.041 A 
ATOM     19  C   UNL     1       0.913   0.804  -2.230  1.00  0.00     0.036 C 
ATOM     20  C   UNL     1       1.813   0.292  -1.125  1.00  0.00    -0.041 A 
ATOM     21  C   UNL     1       2.223  -0.811   1.003  1.00  0.00     0.008 A 
ATOM     22  C   UNL     1       3.184   0.579  -1.215  1.00  0.00     0.052 A 
ATOM     23  C   UNL     1       3.584  -0.525   0.892  1.00  0.00     0.048 A 
ENDBRANCH   4   5
ENDBRANCH   1   4
BRANCH   1  24
ATOM     24  O   UNL     1       6.318   0.777   2.235  1.00  0.00    -0.254 OA
ATOM     25  H   UNL     1       7.079   0.523   2.815  1.00  0.00     0.237 HD
ENDBRANCH   1  24
TORSDOF 3
