REMARK SMILES N=C(N)N1CCc2ccccc2C1
REMARK SMILES IDX 4 1 5 2 6 3 7 4 8 5 9 6 10 7 11 8 12 9 13 10 2 11 3 12 1 15
REMARK H PARENT 3 13 3 14 1 16
REMARK Flexibility Score: inf
ROOT
ATOM      1  N   UNL     1       1.434   0.087  -0.027  1.00  0.00    -0.339 N 
ATOM      2  C   UNL     1       0.997   1.486  -0.195  1.00  0.00     0.124 C 
ATOM      3  C   UNL     1      -0.284   1.775   0.586  1.00  0.00     0.057 C 
ATOM      4  C   UNL     1      -1.338   0.773   0.228  1.00  0.00    -0.041 A 
ATOM      5  C   UNL     1      -2.687   1.151   0.136  1.00  0.00     0.004 A 
ATOM      6  C   UNL     1      -3.663   0.197  -0.166  1.00  0.00     0.000 A 
ATOM      7  C   UNL     1      -3.301  -1.138  -0.360  1.00  0.00     0.000 A 
ATOM      8  C   UNL     1      -1.962  -1.523  -0.253  1.00  0.00     0.006 A 
ATOM      9  C   UNL     1      -0.971  -0.569   0.032  1.00  0.00    -0.025 A 
ATOM     10  C   UNL     1       0.465  -1.002   0.206  1.00  0.00     0.155 C 
ENDROOT
BRANCH   1  11
ATOM     11  C   UNL     1       2.830  -0.239  -0.218  1.00  0.00     0.188 C 
ATOM     12  N   UNL     1       3.358  -1.497   0.224  1.00  0.00    -0.370 N 
ATOM     13  H   UNL     1       4.359  -1.742   0.050  1.00  0.00     0.159 HD
ATOM     14  H   UNL     1       2.779  -2.180   0.760  1.00  0.00     0.159 HD
ATOM     15  N   UNL     1       3.619   0.612  -0.798  1.00  0.00    -0.269 NA
ATOM     16  H   UNL     1       4.632   0.409  -0.952  1.00  0.00     0.191 HD
ENDBRANCH   1  11
TORSDOF 1
