REMARK SMILES COc1cc2c(Oc3ccc4[nH]c(C)cc4c3F)ncnc2cc1OCCCN1CCCC1
REMARK SMILES IDX 26 1 25 2 24 3 3 4 4 5 5 6 23 7 22 8 6 9 21 10 19 11 20 12
REMARK SMILES IDX 2 13 1 14 7 15 8 16 17 17 9 18 18 19 16 20 10 21 11 22 15 23
REMARK SMILES IDX 12 24 13 25 14 27 27 28 28 29 29 30 30 31 33 32 31 33 32 34
REMARK H PARENT 12 26
REMARK Flexibility Score: inf
ROOT
ATOM      1  C   UNL     1      -4.081  -0.030  -1.996  1.00  0.00     0.231 C 
ENDROOT
BRANCH   1   2
ATOM      2  O   UNL     1      -2.997  -0.797  -1.475  1.00  0.00    -0.490 OA
BRANCH   2   3
ATOM      3  C   UNL     1      -1.710  -0.297  -1.228  1.00  0.00     0.163 A 
ATOM      4  C   UNL     1      -0.758  -1.163  -0.667  1.00  0.00     0.161 A 
ATOM      5  C   UNL     1       0.546  -0.696  -0.407  1.00  0.00     0.066 A 
ATOM      6  C   UNL     1       0.898   0.629  -0.707  1.00  0.00     0.067 A 
ATOM      7  C   UNL     1      -1.356   1.033  -1.526  1.00  0.00     0.079 A 
ATOM      8  C   UNL     1      -0.062   1.495  -1.269  1.00  0.00     0.081 A 
ATOM      9  C   UNL     1       2.188   1.132  -0.473  1.00  0.00     0.230 A 
ATOM     10  N   UNL     1       0.273   2.779  -1.561  1.00  0.00    -0.236 NA
ATOM     11  N   UNL     1       2.464   2.431  -0.777  1.00  0.00    -0.201 NA
ATOM     12  C   UNL     1       1.523   3.247  -1.318  1.00  0.00     0.226 A 
BRANCH   4  13
ATOM     13  O   UNL     1      -1.149  -2.480  -0.379  1.00  0.00    -0.493 OA
ATOM     14  C   UNL     1      -0.300  -3.466   0.200  1.00  0.00     0.278 C 
ENDBRANCH   4  13
BRANCH   9  15
ATOM     15  O   UNL     1       3.168   0.312   0.106  1.00  0.00    -0.435 OA
BRANCH  15  16
ATOM     16  C   UNL     1       4.550   0.545   0.060  1.00  0.00     0.165 A 
ATOM     17  C   UNL     1       5.345   0.083   1.128  1.00  0.00     0.175 A 
ATOM     18  C   UNL     1       5.168   1.187  -1.049  1.00  0.00     0.052 A 
ATOM     19  F   UNL     1       4.786  -0.554   2.187  1.00  0.00    -0.202 F 
ATOM     20  C   UNL     1       6.720   0.303   1.071  1.00  0.00     0.039 A 
ATOM     21  C   UNL     1       6.559   1.389  -1.077  1.00  0.00     0.031 A 
ATOM     22  C   UNL     1       7.307   0.935   0.007  1.00  0.00     0.049 A 
ATOM     23  C   UNL     1       7.722  -0.040   1.953  1.00  0.00     0.034 A 
ATOM     24  N   UNL     1       8.638   1.011   0.168  1.00  0.00    -0.359 N 
ATOM     25  C   UNL     1       8.893   0.426   1.362  1.00  0.00     0.013 A 
ATOM     26  H   UNL     1       9.332   1.423  -0.495  1.00  0.00     0.166 HD
ATOM     27  C   UNL     1      10.268   0.227   1.912  1.00  0.00     0.064 C 
ENDBRANCH  15  16
ENDBRANCH   9  15
ENDBRANCH   2   3
ENDBRANCH   1   2
BRANCH   1  28
ATOM     28  C   UNL     1      -5.328  -0.907  -2.125  1.00  0.00     0.057 C 
BRANCH  28  29
ATOM     29  C   UNL     1      -5.784  -1.490  -0.778  1.00  0.00     0.088 C 
BRANCH  29  30
ATOM     30  N   UNL     1      -6.105  -0.423   0.192  1.00  0.00    -0.303 NA
ATOM     31  C   UNL     1      -7.358   0.279  -0.124  1.00  0.00     0.084 C 
ATOM     32  C   UNL     1      -6.285  -0.965   1.540  1.00  0.00     0.084 C 
ATOM     33  C   UNL     1      -8.010   0.674   1.198  1.00  0.00     0.017 C 
ATOM     34  C   UNL     1      -7.175   0.013   2.280  1.00  0.00     0.017 C 
ENDBRANCH  29  30
ENDBRANCH  28  29
ENDBRANCH   1  28
TORSDOF 8
