REMARK SMILES CN(C)[C@@H](CCOc1cccc2ccccc12)c1ccccc1
REMARK SMILES IDX 5 1 4 2 2 3 1 4 3 5 18 6 19 7 23 8 20 9 22 10 21 11 6 12
REMARK SMILES IDX 7 13 8 14 9 15 17 16 10 17 12 18 16 19 11 20 13 21 15 22
REMARK SMILES IDX 14 23
REMARK H PARENT
REMARK Flexibility Score: inf
ROOT
ATOM      1  C   UNL     1      -0.601   0.126   0.732  1.00  0.00     0.065 C 
ENDROOT
BRANCH   1   2
ATOM      2  C   UNL     1      -2.132   0.379   0.886  1.00  0.00     0.089 C 
BRANCH   2   3
ATOM      3  N   UNL     1      -2.435   1.749   1.399  1.00  0.00    -0.302 NA
ATOM      4  C   UNL     1      -1.909   2.801   0.507  1.00  0.00     0.105 C 
ATOM      5  C   UNL     1      -3.893   1.952   1.537  1.00  0.00     0.105 C 
ENDBRANCH   2   3
BRANCH   2   6
ATOM      6  C   UNL     1      -2.690  -0.678   1.829  1.00  0.00    -0.031 A 
ATOM      7  C   UNL     1      -3.529  -1.696   1.344  1.00  0.00     0.005 A 
ATOM      8  C   UNL     1      -2.349  -0.664   3.195  1.00  0.00     0.005 A 
ATOM      9  C   UNL     1      -4.029  -2.672   2.212  1.00  0.00     0.000 A 
ATOM     10  C   UNL     1      -2.852  -1.642   4.058  1.00  0.00     0.000 A 
ATOM     11  C   UNL     1      -3.692  -2.644   3.568  1.00  0.00     0.000 A 
ENDBRANCH   2   6
ENDBRANCH   1   2
BRANCH   1  12
ATOM     12  C   UNL     1      -0.124   0.229  -0.720  1.00  0.00     0.231 C 
BRANCH  12  13
ATOM     13  O   UNL     1       1.285   0.018  -0.768  1.00  0.00    -0.493 OA
BRANCH  13  14
ATOM     14  C   UNL     1       2.057   0.031  -1.942  1.00  0.00     0.127 A 
ATOM     15  C   UNL     1       1.477   0.257  -3.206  1.00  0.00     0.047 A 
ATOM     16  C   UNL     1       3.449  -0.188  -1.854  1.00  0.00     0.024 A 
ATOM     17  C   UNL     1       2.264   0.265  -4.359  1.00  0.00     0.004 A 
ATOM     18  C   UNL     1       4.242  -0.178  -3.031  1.00  0.00    -0.015 A 
ATOM     19  C   UNL     1       4.071  -0.418  -0.612  1.00  0.00     0.012 A 
ATOM     20  C   UNL     1       3.639   0.049  -4.275  1.00  0.00     0.009 A 
ATOM     21  C   UNL     1       5.626  -0.396  -2.943  1.00  0.00     0.009 A 
ATOM     22  C   UNL     1       5.450  -0.634  -0.541  1.00  0.00     0.001 A 
ATOM     23  C   UNL     1       6.224  -0.623  -1.702  1.00  0.00     0.001 A 
ENDBRANCH  13  14
ENDBRANCH  12  13
ENDBRANCH   1  12
TORSDOF 6
