REMARK SMILES CCCCCCCC(=O)O
REMARK SMILES IDX 5 1 4 2 3 3 2 4 1 5 6 6 7 7 8 8 9 9 10 10
REMARK H PARENT 10 11
REMARK Flexibility Score: inf
ROOT
ATOM      1  C   UNL     1      -0.479   0.427   0.055  1.00  0.00     0.001 C 
ENDROOT
BRANCH   1   2
ATOM      2  C   UNL     1       0.957   0.969   0.102  1.00  0.00     0.000 C 
BRANCH   2   3
ATOM      3  C   UNL     1       1.998  -0.133   0.357  1.00  0.00    -0.000 C 
BRANCH   3   4
ATOM      4  C   UNL     1       2.177  -1.067  -0.848  1.00  0.00    -0.003 C 
ATOM      5  C   UNL     1       3.310  -2.061  -0.609  1.00  0.00     0.004 C 
ENDBRANCH   3   4
ENDBRANCH   2   3
ENDBRANCH   1   2
BRANCH   1   6
ATOM      6  C   UNL     1      -1.495   1.574  -0.060  1.00  0.00     0.012 C 
BRANCH   6   7
ATOM      7  C   UNL     1      -2.936   1.065  -0.187  1.00  0.00     0.122 C 
BRANCH   7   8
ATOM      8  C   UNL     1      -3.409   0.414   1.076  1.00  0.00     0.303 C 
ATOM      9  O   UNL     1      -3.784   1.122   2.049  1.00  0.00    -0.252 OA
BRANCH   8  10
ATOM     10  O   UNL     1      -3.403  -0.973   1.187  1.00  0.00    -0.481 OA
ATOM     11  H   UNL     1      -3.706  -1.427   2.040  1.00  0.00     0.296 HD
ENDBRANCH   8  10
ENDBRANCH   7   8
ENDBRANCH   6   7
ENDBRANCH   1   6
TORSDOF 7
