REMARK SMILES CSc1ccc(C(=O)c2[nH]c(=O)[nH]c2C)cc1
REMARK SMILES IDX 3 1 4 2 5 3 6 4 16 5 17 6 2 7 1 8 7 9 8 10 9 11 14 12 10 13
REMARK SMILES IDX 15 14 13 15 11 16 12 19
REMARK H PARENT 10 17 13 18
REMARK Flexibility Score: inf
ROOT
ATOM      1  C   UNL     1       2.974   0.907  -0.571  1.00  0.00     0.007 A 
ATOM      2  C   UNL     1       2.594   0.077  -1.630  1.00  0.00     0.016 A 
ATOM      3  C   UNL     1       1.310  -0.475  -1.664  1.00  0.00     0.013 A 
ATOM      4  C   UNL     1       0.385  -0.190  -0.644  1.00  0.00     0.024 A 
ATOM      5  C   UNL     1       0.781   0.636   0.424  1.00  0.00     0.013 A 
ATOM      6  C   UNL     1       2.066   1.186   0.455  1.00  0.00     0.016 A 
ENDROOT
BRANCH   1   7
ATOM      7  S   UNL     1       4.621   1.617  -0.531  1.00  0.00    -0.130 SA
ATOM      8  C   UNL     1       5.333   0.220   0.392  1.00  0.00     0.091 C 
ENDBRANCH   1   7
BRANCH   4   9
ATOM      9  C   UNL     1      -0.966  -0.795  -0.680  1.00  0.00     0.211 C 
ATOM     10  O   UNL     1      -1.112  -1.936  -1.196  1.00  0.00    -0.287 OA
BRANCH   9  11
ATOM     11  C   UNL     1      -2.153  -0.090  -0.147  1.00  0.00     0.110 A 
ATOM     12  C   UNL     1      -3.349  -0.660   0.274  1.00  0.00     0.044 A 
ATOM     13  N   UNL     1      -2.266   1.251  -0.051  1.00  0.00    -0.303 N 
ATOM     14  C   UNL     1      -3.695  -2.115   0.310  1.00  0.00     0.067 C 
ATOM     15  N   UNL     1      -4.196   0.325   0.631  1.00  0.00    -0.310 N 
ATOM     16  C   UNL     1      -3.508   1.462   0.421  1.00  0.00     0.323 A 
ATOM     17  H   UNL     1      -1.564   1.977  -0.320  1.00  0.00     0.172 HD
ATOM     18  H   UNL     1      -5.175   0.230   0.982  1.00  0.00     0.171 HD
ATOM     19  O   UNL     1      -3.983   2.608   0.635  1.00  0.00    -0.248 OA
ENDBRANCH   9  11
ENDBRANCH   4   9
TORSDOF 3
