REMARK SMILES CS(=O)(=O)Nc1ccc([N+](=O)[O-])cc1Oc1ccccc1
REMARK SMILES IDX 6 1 14 2 13 3 9 4 8 5 7 6 5 7 2 9 1 10 3 11 4 12 15 13 16 14
REMARK SMILES IDX 17 15 21 16 18 17 20 18 19 19 10 20 12 21 11 22
REMARK H PARENT 5 8
REMARK Flexibility Score: inf
ROOT
ATOM      1  C   UNL     1       1.244   0.926  -0.497  1.00  0.00     0.092 A 
ATOM      2  C   UNL     1      -0.135   0.690  -0.335  1.00  0.00     0.158 A 
ATOM      3  C   UNL     1      -0.850   1.379   0.662  1.00  0.00     0.134 A 
ATOM      4  C   UNL     1      -0.202   2.279   1.522  1.00  0.00     0.273 A 
ATOM      5  C   UNL     1       1.175   2.499   1.361  1.00  0.00     0.088 A 
ATOM      6  C   UNL     1       1.888   1.837   0.360  1.00  0.00     0.038 A 
ENDROOT
BRANCH   1   7
ATOM      7  N   UNL     1       1.966   0.244  -1.541  1.00  0.00    -0.280 N 
ATOM      8  H   UNL     1       1.436  -0.247  -2.294  1.00  0.00     0.180 HD
BRANCH   7   9
ATOM      9  S   UNL     1       3.688   0.024  -1.548  1.00  0.00     0.229 S 
ATOM     10  C   UNL     1       4.216  -0.754  -0.035  1.00  0.00     0.183 C 
ATOM     11  O   UNL     1       4.377   1.348  -1.724  1.00  0.00    -0.207 OA
ATOM     12  O   UNL     1       4.058  -0.872  -2.696  1.00  0.00    -0.207 OA
ENDBRANCH   7   9
ENDBRANCH   1   7
BRANCH   2  13
ATOM     13  O   UNL     1      -0.785  -0.203  -1.201  1.00  0.00    -0.455 OA
BRANCH  13  14
ATOM     14  C   UNL     1      -1.860  -1.035  -0.855  1.00  0.00     0.127 A 
ATOM     15  C   UNL     1      -2.767  -1.412  -1.854  1.00  0.00     0.047 A 
ATOM     16  C   UNL     1      -2.025  -1.536   0.450  1.00  0.00     0.047 A 
ATOM     17  C   UNL     1      -3.843  -2.253  -1.551  1.00  0.00     0.004 A 
ATOM     18  C   UNL     1      -3.102  -2.376   0.750  1.00  0.00     0.004 A 
ATOM     19  C   UNL     1      -4.013  -2.731  -0.249  1.00  0.00     0.000 A 
ENDBRANCH  13  14
ENDBRANCH   2  13
BRANCH   4  20
ATOM     20  N   UNL     1      -0.941   2.971   2.546  1.00  0.00     0.062 N 
ATOM     21  O   UNL     1      -2.290   2.747   2.707  1.00  0.00    -0.258 OA
ATOM     22  O   UNL     1      -0.371   3.781   3.306  1.00  0.00    -0.258 OA
ENDBRANCH   4  20
TORSDOF 5
