REMARK SMILES Cc1nc(N)nc(N)c1-c1ccc(Cl)c(Cl)c1
REMARK SMILES IDX 1 1 2 2 9 3 7 4 6 5 4 6 3 7 10 8 17 9 11 10 15 11 12 12
REMARK SMILES IDX 16 13 13 14 14 15 8 16 5 19
REMARK H PARENT 8 17 8 18 5 20 5 21
REMARK Flexibility Score: inf
ROOT
ATOM      1  C   UNL     1      -0.498   0.975   2.241  1.00  0.00     0.068 C 
ATOM      2  C   UNL     1      -1.212   0.481   1.016  1.00  0.00     0.053 A 
ATOM      3  C   UNL     1      -0.512  -0.032  -0.098  1.00  0.00     0.045 A 
ATOM      4  C   UNL     1      -1.266  -0.481  -1.203  1.00  0.00     0.137 A 
ATOM      5  N   UNL     1      -2.622  -0.405  -1.164  1.00  0.00    -0.196 NA
ATOM      6  C   UNL     1      -3.274   0.096  -0.085  1.00  0.00     0.222 A 
ATOM      7  N   UNL     1      -2.570   0.534   0.988  1.00  0.00    -0.218 NA
ENDROOT
BRANCH   3   8
ATOM      8  C   UNL     1       0.964  -0.110  -0.098  1.00  0.00    -0.011 A 
ATOM      9  C   UNL     1       1.733   1.055  -0.234  1.00  0.00     0.031 A 
ATOM     10  C   UNL     1       1.603  -1.349   0.043  1.00  0.00     0.010 A 
ATOM     11  C   UNL     1       3.131   0.984  -0.229  1.00  0.00     0.060 A 
ATOM     12  C   UNL     1       2.999  -1.423   0.048  1.00  0.00     0.023 A 
ATOM     13  Cl  UNL     1       4.059   2.468  -0.401  1.00  0.00    -0.083 Cl
ATOM     14  C   UNL     1       3.767  -0.261  -0.087  1.00  0.00     0.059 A 
ATOM     15  Cl  UNL     1       5.521  -0.394  -0.075  1.00  0.00    -0.083 Cl
ENDBRANCH   3   8
BRANCH   4  16
ATOM     16  N   UNL     1      -0.638  -0.998  -2.381  1.00  0.00    -0.383 N 
ATOM     17  H   UNL     1      -1.225  -1.336  -3.176  1.00  0.00     0.158 HD
ATOM     18  H   UNL     1       0.399  -1.025  -2.494  1.00  0.00     0.158 HD
ENDBRANCH   4  16
BRANCH   6  19
ATOM     19  N   UNL     1      -4.698   0.163  -0.080  1.00  0.00    -0.368 N 
ATOM     20  H   UNL     1      -5.206   0.548   0.748  1.00  0.00     0.159 HD
ATOM     21  H   UNL     1      -5.246  -0.172  -0.903  1.00  0.00     0.159 HD
ENDBRANCH   6  19
TORSDOF 3
