REMARK SMILES O=c1[nH]ccc2c(S(=O)(=O)N3CCCNCC3)cccc12
REMARK SMILES IDX 17 1 11 2 8 3 9 4 10 5 7 6 1 7 2 8 3 9 21 10 4 11 6 13 20 14
REMARK SMILES IDX 5 15 19 16 18 17 12 18 13 19 16 21 15 22 14 24
REMARK H PARENT 3 12 15 23
REMARK Flexibility Score: 80.00
ROOT
ATOM      1  C   UNL     1      -1.738  -0.913   0.973  1.00  0.00     0.118 C 
ENDROOT
BRANCH   1   2
ATOM      2  N   UNL     1      -1.727   0.319   0.157  1.00  0.00    -0.197 NA
BRANCH   2   3
ATOM      3  S   UNL     1      -0.220   1.203   0.266  1.00  0.00     0.243 S 
ATOM      4  O   UNL     1      -0.322   2.425  -0.604  1.00  0.00    -0.207 OA
ATOM      5  O   UNL     1      -0.072   1.642   1.696  1.00  0.00    -0.207 OA
BRANCH   3   6
ATOM      6  C   UNL     1       1.256   0.310  -0.202  1.00  0.00     0.090 A 
ATOM      7  O   UNL     1       6.026  -0.045  -0.354  1.00  0.00    -0.269 OA
ATOM      8  C   UNL     1       4.990   0.619  -0.073  1.00  0.00     0.255 A 
ATOM      9  N   UNL     1       5.122   1.862   0.464  1.00  0.00    -0.329 N 
ATOM     10  C   UNL     1       3.706   0.086  -0.315  1.00  0.00     0.048 A 
ATOM     11  C   UNL     1       4.042   2.623   0.773  1.00  0.00     0.086 A 
ATOM     12  H   UNL     1       6.077   2.250   0.638  1.00  0.00     0.169 HD
ATOM     13  C   UNL     1       2.556   0.852   0.022  1.00  0.00     0.009 A 
ATOM     14  C   UNL     1       3.552  -1.184  -0.892  1.00  0.00     0.014 A 
ATOM     15  C   UNL     1       2.752   2.141   0.558  1.00  0.00     0.028 A 
ATOM     16  C   UNL     1       2.282  -1.688  -1.149  1.00  0.00     0.002 A 
ATOM     17  C   UNL     1       1.150  -0.950  -0.816  1.00  0.00     0.022 A 
ENDBRANCH   3   6
ENDBRANCH   2   3
BRANCH   2  18
ATOM     18  C   UNL     1      -2.198   0.184  -1.239  1.00  0.00     0.104 C 
BRANCH  18  19
ATOM     19  C   UNL     1      -3.328  -0.849  -1.419  1.00  0.00     0.032 CG0
ATOM     20  G   UNL     1      -4.532  -0.636  -0.480  1.00  0.00     0.000 G0
ENDBRANCH  18  19
ENDBRANCH   2  18
ENDBRANCH   1   2
BRANCH   1  21
ATOM     21  C   UNL     1      -3.166  -1.232   1.469  1.00  0.00     0.097 C 
BRANCH  21  22
ATOM     22  N   UNL     1      -4.157  -0.302   0.905  1.00  0.00    -0.315 NA
ATOM     23  H   UNL     1      -5.024  -0.360   1.488  1.00  0.00     0.122 HD
BRANCH  22  24
ATOM     24  C   UNL     1      -4.532  -0.636  -0.480  1.00  0.00     0.082 CG0
ATOM     25  G   UNL     1      -3.328  -0.849  -1.419  1.00  0.00     0.000 G0
ENDBRANCH  22  24
ENDBRANCH  21  22
ENDBRANCH   1  21
TORSDOF 2
