REMARK SMILES C[C@]12CCC(=O)C=C1CC[C@@H]1[C@@H]2[C@@H](O)C[C@]2(C=O)[C@@H](C(=O)CO)CC[C@@H]12
REMARK SMILES IDX 20 1 21 2 19 3 24 4 16 5 25 6 26 7 15 8 11 9 13 10 10 11
REMARK SMILES IDX 12 12 9 13 2 14 8 15 3 16 1 17 7 18 4 19 5 20 6 21 17 22
REMARK SMILES IDX 18 23 14 24 22 26 23 27
REMARK H PARENT 14 25 23 28
REMARK Flexibility Score: inf
ROOT
ATOM      1  C   UNL     1       4.345   0.827  -0.908  1.00  0.00     0.162 C 
ATOM      2  O   UNL     1       4.282   2.045  -1.000  1.00  0.00    -0.297 OA
ENDROOT
BRANCH   1   3
ATOM      3  C   UNL     1       3.097   0.013  -1.220  1.00  0.00     0.072 C 
ATOM      4  C   UNL     1       3.262  -1.529  -1.201  1.00  0.00     0.013 C 
ATOM      5  C   UNL     1       1.904   0.258  -0.272  1.00  0.00     0.041 C 
ATOM      6  C   UNL     1       1.893  -2.109  -0.797  1.00  0.00     0.006 C 
ATOM      7  C   UNL     1       0.974  -0.891  -0.705  1.00  0.00     0.007 C 
ATOM      8  C   UNL     1       1.149   1.597  -0.474  1.00  0.00     0.047 C 
ATOM      9  C   UNL     1      -0.307  -0.954   0.164  1.00  0.00    -0.000 C 
ATOM     10  C   UNL     1      -0.203   1.626   0.299  1.00  0.00     0.119 C 
ATOM     11  C   UNL     1      -1.182  -2.211  -0.109  1.00  0.00     0.009 C 
ATOM     12  C   UNL     1      -1.086   0.386  -0.053  1.00  0.00     0.031 C 
ATOM     13  C   UNL     1      -2.521  -1.919  -0.797  1.00  0.00     0.032 C 
ATOM     14  C   UNL     1      -2.532   0.343   0.568  1.00  0.00    -0.005 C 
ATOM     15  C   UNL     1      -3.288  -0.803  -0.117  1.00  0.00    -0.060 C 
ATOM     16  C   UNL     1      -3.279   1.683   0.288  1.00  0.00     0.020 C 
ATOM     17  C   UNL     1      -2.513   0.076   2.096  1.00  0.00     0.016 C 
ATOM     18  C   UNL     1      -4.626  -0.777  -0.246  1.00  0.00     0.047 C 
ATOM     19  C   UNL     1      -4.764   1.634   0.680  1.00  0.00     0.081 C 
ATOM     20  C   UNL     1      -5.423   0.383   0.180  1.00  0.00     0.155 C 
ATOM     21  O   UNL     1      -6.680   0.322   0.133  1.00  0.00    -0.295 OA
BRANCH   5  22
ATOM     22  C   UNL     1       2.375   0.125   1.181  1.00  0.00     0.232 C 
ATOM     23  O   UNL     1       2.991   1.029   1.723  1.00  0.00    -0.303 OA
ENDBRANCH   5  22
BRANCH  10  24
ATOM     24  O   UNL     1       0.024   1.693   1.682  1.00  0.00    -0.393 OA
ATOM     25  H   UNL     1       0.327   2.617   1.880  1.00  0.00     0.210 HD
ENDBRANCH  10  24
ENDBRANCH   1   3
BRANCH   1  26
ATOM     26  C   UNL     1       5.652   0.189  -0.499  1.00  0.00     0.231 C 
BRANCH  26  27
ATOM     27  O   UNL     1       6.670   1.147  -0.378  1.00  0.00    -0.389 OA
ATOM     28  H   UNL     1       6.959   1.372  -1.301  1.00  0.00     0.211 HD
ENDBRANCH  26  27
ENDBRANCH   1  26
TORSDOF 5
