REMARK SMILES COc1cc(C(=O)C(=O)N2CCCC[C@H]2C(=O)OC(CCCc2cccnc2)CCCc2cccnc2)cc(OC)c1OC
REMARK SMILES IDX 16 1 17 2 15 3 10 4 11 5 12 6 14 7 13 8 8 9 9 10 6 11 7 12
REMARK SMILES IDX 5 13 3 14 4 15 42 16 39 17 38 18 2 19 1 20 43 21 44 22 40 23
REMARK SMILES IDX 41 24 18 25 19 26 20 27 21 28 22 29 23 30 28 31 24 32 27 33
REMARK SMILES IDX 25 34 26 35 29 36 30 37 31 38 32 39 37 40 33 41 36 42 34 43
REMARK SMILES IDX 35 44
REMARK H PARENT
REMARK Flexibility Score: inf
ROOT
ATOM      1  C   UNL     1      -0.770  -1.374   2.172  1.00  0.00     0.329 C 
ATOM      2  O   UNL     1      -1.601  -0.775   2.911  1.00  0.00    -0.250 OA
ENDROOT
BRANCH   1   3
ATOM      3  C   UNL     1       0.227  -2.340   2.759  1.00  0.00     0.195 C 
ATOM      4  N   UNL     1       1.633  -1.985   2.475  1.00  0.00    -0.322 N 
ATOM      5  C   UNL     1       2.573  -3.070   2.800  1.00  0.00     0.121 C 
ATOM      6  C   UNL     1       2.510  -3.341   4.310  1.00  0.00     0.022 C 
ATOM      7  C   UNL     1       0.077  -2.550   4.277  1.00  0.00     0.037 C 
ATOM      8  C   UNL     1       1.065  -3.631   4.759  1.00  0.00     0.005 C 
BRANCH   4   9
ATOM      9  C   UNL     1       2.104  -0.609   2.442  1.00  0.00     0.295 C 
ATOM     10  O   UNL     1       1.297   0.351   2.555  1.00  0.00    -0.265 OA
BRANCH   9  11
ATOM     11  C   UNL     1       3.538  -0.290   2.319  1.00  0.00     0.250 C 
ATOM     12  O   UNL     1       4.269  -0.438   3.335  1.00  0.00    -0.283 OA
BRANCH  11  13
ATOM     13  C   UNL     1       4.134   0.184   1.043  1.00  0.00     0.035 A 
ATOM     14  C   UNL     1       6.126   0.608  -0.321  1.00  0.00     0.165 A 
ATOM     15  C   UNL     1       5.527   0.174   0.878  1.00  0.00     0.063 A 
ATOM     16  C   UNL     1       5.302   1.080  -1.374  1.00  0.00     0.203 A 
ATOM     17  C   UNL     1       3.908   1.101  -1.210  1.00  0.00     0.165 A 
ATOM     18  C   UNL     1       3.330   0.642  -0.013  1.00  0.00     0.063 A 
BRANCH  14  19
ATOM     19  O   UNL     1       7.521   0.579  -0.482  1.00  0.00    -0.493 OA
ATOM     20  C   UNL     1       8.449   0.115   0.494  1.00  0.00     0.278 C 
ENDBRANCH  14  19
BRANCH  16  21
ATOM     21  O   UNL     1       5.800   1.547  -2.606  1.00  0.00    -0.490 OA
ATOM     22  C   UNL     1       7.162   1.581  -3.015  1.00  0.00     0.278 C 
ENDBRANCH  16  21
BRANCH  17  23
ATOM     23  O   UNL     1       3.129   1.591  -2.271  1.00  0.00    -0.493 OA
ATOM     24  C   UNL     1       1.711   1.708  -2.249  1.00  0.00     0.278 C 
ENDBRANCH  17  23
ENDBRANCH  11  13
ENDBRANCH   9  11
ENDBRANCH   4   9
ENDBRANCH   1   3
BRANCH   1  25
ATOM     25  O   UNL     1      -0.782  -1.184   0.787  1.00  0.00    -0.461 OA
BRANCH  25  26
ATOM     26  C   UNL     1      -1.710  -0.336   0.109  1.00  0.00     0.176 C 
BRANCH  26  27
ATOM     27  C   UNL     1      -1.284   1.139   0.308  1.00  0.00     0.045 C 
BRANCH  27  28
ATOM     28  C   UNL     1      -2.105   2.179  -0.478  1.00  0.00     0.009 C 
BRANCH  28  29
ATOM     29  C   UNL     1      -3.588   2.192  -0.083  1.00  0.00     0.037 C 
BRANCH  29  30
ATOM     30  C   UNL     1      -4.346   3.204  -0.897  1.00  0.00    -0.030 A 
ATOM     31  C   UNL     1      -4.849   2.867  -2.164  1.00  0.00     0.114 A 
ATOM     32  C   UNL     1      -4.527   4.513  -0.427  1.00  0.00     0.007 A 
ATOM     33  N   UNL     1      -5.519   3.792  -2.903  1.00  0.00    -0.264 NA
ATOM     34  C   UNL     1      -5.218   5.444  -1.205  1.00  0.00     0.020 A 
ATOM     35  C   UNL     1      -5.715   5.060  -2.452  1.00  0.00     0.111 A 
ENDBRANCH  29  30
ENDBRANCH  28  29
ENDBRANCH  27  28
ENDBRANCH  26  27
BRANCH  26  36
ATOM     36  C   UNL     1      -1.757  -0.737  -1.380  1.00  0.00     0.045 C 
BRANCH  36  37
ATOM     37  C   UNL     1      -1.980  -2.244  -1.612  1.00  0.00     0.009 C 
BRANCH  37  38
ATOM     38  C   UNL     1      -3.335  -2.771  -1.105  1.00  0.00     0.037 C 
BRANCH  38  39
ATOM     39  C   UNL     1      -4.504  -2.065  -1.745  1.00  0.00    -0.030 A 
ATOM     40  C   UNL     1      -4.782  -2.236  -3.110  1.00  0.00     0.114 A 
ATOM     41  C   UNL     1      -5.318  -1.203  -0.996  1.00  0.00     0.007 A 
ATOM     42  N   UNL     1      -5.812  -1.561  -3.689  1.00  0.00    -0.264 NA
ATOM     43  C   UNL     1      -6.367  -0.520  -1.614  1.00  0.00     0.020 A 
ATOM     44  C   UNL     1      -6.599  -0.712  -2.977  1.00  0.00     0.111 A 
ENDBRANCH  38  39
ENDBRANCH  37  38
ENDBRANCH  36  37
ENDBRANCH  26  36
ENDBRANCH  25  26
ENDBRANCH   1  25
TORSDOF 17
