REMARK SMILES CN1CCN(c2c(F)cc3c(=O)c(C(=O)O)cn(CCF)c3c2F)CC1
REMARK SMILES IDX 6 1 7 2 8 3 9 4 10 5 11 6 12 7 13 8 17 9 18 10 22 11 23 12
REMARK SMILES IDX 24 13 5 14 1 15 2 16 3 17 26 18 4 19 25 20 19 21 20 22 21 23
REMARK SMILES IDX 14 24 15 25 16 26
REMARK H PARENT 16 27
REMARK Flexibility Score: inf
ROOT
ATOM      1  C   UNL     1       0.603   0.641   0.861  1.00  0.00     0.112 A 
ATOM      2  C   UNL     1       0.146   1.448   1.903  1.00  0.00     0.150 A 
ATOM      3  F   UNL     1       1.016   1.945   2.819  1.00  0.00    -0.205 F 
ATOM      4  C   UNL     1      -1.204   1.755   2.007  1.00  0.00     0.056 A 
ATOM      5  C   UNL     1      -2.130   1.271   1.062  1.00  0.00     0.053 A 
ATOM      6  C   UNL     1      -3.496   1.579   1.195  1.00  0.00     0.204 A 
ATOM      7  O   UNL     1      -3.889   2.300   2.154  1.00  0.00    -0.288 OA
ATOM      8  C   UNL     1      -4.419   1.088   0.262  1.00  0.00     0.124 A 
ATOM      9  C   UNL     1      -3.945   0.316  -0.805  1.00  0.00     0.106 A 
ATOM     10  N   UNL     1      -2.614   0.029  -0.963  1.00  0.00    -0.341 N 
ATOM     11  C   UNL     1      -1.688   0.464  -0.026  1.00  0.00     0.091 A 
ATOM     12  C   UNL     1      -0.298   0.141  -0.091  1.00  0.00     0.173 A 
ATOM     13  F   UNL     1       0.216  -0.694  -1.026  1.00  0.00    -0.202 F 
ENDROOT
BRANCH   1  14
ATOM     14  N   UNL     1       1.998   0.311   0.767  1.00  0.00    -0.364 N 
ATOM     15  C   UNL     1       5.436  -1.706  -0.420  1.00  0.00     0.105 C 
ATOM     16  N   UNL     1       4.143  -1.074  -0.115  1.00  0.00    -0.303 NA
ATOM     17  C   UNL     1       3.699  -1.442   1.250  1.00  0.00     0.105 C 
ATOM     18  C   UNL     1       4.230   0.386  -0.277  1.00  0.00     0.105 C 
ATOM     19  C   UNL     1       2.633  -0.482   1.825  1.00  0.00     0.132 C 
ATOM     20  C   UNL     1       2.817   0.969  -0.257  1.00  0.00     0.132 C 
ENDBRANCH   1  14
BRANCH  10  21
ATOM     21  C   UNL     1      -2.263  -0.764  -2.160  1.00  0.00     0.156 C 
BRANCH  21  22
ATOM     22  C   UNL     1      -2.201  -2.256  -1.831  1.00  0.00     0.236 C 
ATOM     23  F   UNL     1      -3.461  -2.722  -1.503  1.00  0.00    -0.249 F 
ENDBRANCH  21  22
ENDBRANCH  10  21
BRANCH   8  24
ATOM     24  C   UNL     1      -5.877   1.369   0.374  1.00  0.00     0.341 C 
ATOM     25  O   UNL     1      -6.656   1.068  -0.570  1.00  0.00    -0.246 OA
BRANCH  24  26
ATOM     26  O   UNL     1      -6.406   1.955   1.521  1.00  0.00    -0.477 OA
ATOM     27  H   UNL     1      -7.397   2.149   1.598  1.00  0.00     0.297 HD
ENDBRANCH  24  26
ENDBRANCH   8  24
TORSDOF 5
