REMARK SMILES Cc1cc(CC(=O)O)n(C)c1C(=O)c1ccc(Cl)cc1
REMARK SMILES IDX 10 1 9 2 4 3 3 4 2 5 1 6 11 7 5 8 6 9 7 10 8 11 12 13 13 14
REMARK SMILES IDX 14 15 15 16 20 17 16 18 19 19 17 20 18 21
REMARK H PARENT 8 12
REMARK Flexibility Score: inf
ROOT
ATOM      1  C   UNL     1      -1.781  -1.973   0.399  1.00  0.00     0.150 C 
ATOM      2  N   UNL     1      -1.444  -0.555   0.250  1.00  0.00    -0.344 N 
ATOM      3  C   UNL     1      -2.235   0.503   0.553  1.00  0.00     0.029 A 
ATOM      4  C   UNL     1      -1.606   1.685   0.206  1.00  0.00     0.028 A 
ATOM      5  C   UNL     1      -0.389   1.333  -0.341  1.00  0.00    -0.022 A 
ATOM      6  C   UNL     1       0.621   2.290  -0.895  1.00  0.00     0.047 C 
ATOM      7  C   UNL     1      -0.311  -0.053  -0.295  1.00  0.00     0.092 A 
ENDROOT
BRANCH   3   8
ATOM      8  C   UNL     1      -3.631   0.419   1.103  1.00  0.00     0.176 C 
BRANCH   8   9
ATOM      9  C   UNL     1      -4.583  -0.017   0.036  1.00  0.00     0.309 C 
ATOM     10  O   UNL     1      -4.961   0.801  -0.845  1.00  0.00    -0.252 OA
BRANCH   9  11
ATOM     11  O   UNL     1      -5.031  -1.333   0.001  1.00  0.00    -0.481 OA
ATOM     12  H   UNL     1      -5.666  -1.646  -0.724  1.00  0.00     0.296 HD
ENDBRANCH   9  11
ENDBRANCH   8   9
ENDBRANCH   3   8
BRANCH   7  13
ATOM     13  C   UNL     1       0.796  -0.874  -0.833  1.00  0.00     0.209 C 
ATOM     14  O   UNL     1       0.519  -1.843  -1.590  1.00  0.00    -0.287 OA
BRANCH  13  15
ATOM     15  C   UNL     1       2.213  -0.588  -0.505  1.00  0.00     0.024 A 
ATOM     16  C   UNL     1       3.236  -0.994  -1.381  1.00  0.00     0.014 A 
ATOM     17  C   UNL     1       2.561   0.061   0.694  1.00  0.00     0.014 A 
ATOM     18  C   UNL     1       4.575  -0.734  -1.075  1.00  0.00     0.021 A 
ATOM     19  C   UNL     1       3.901   0.320   0.996  1.00  0.00     0.021 A 
ATOM     20  C   UNL     1       4.909  -0.075   0.112  1.00  0.00     0.041 A 
ATOM     21  Cl  UNL     1       6.590   0.251   0.494  1.00  0.00    -0.084 Cl
ENDBRANCH  13  15
ENDBRANCH   7  13
TORSDOF 5
