REMARK SMILES COc1c(C(=O)NC2CCN3CCCC2C3)ccc(N)c1Cl
REMARK SMILES IDX 3 1 4 2 17 3 18 4 19 5 21 6 22 7 2 8 1 9 5 10 6 11 7 12 8 14
REMARK SMILES IDX 9 15 15 16 10 17 14 18 16 19 11 20 13 21 12 22 20 23
REMARK H PARENT 7 13 20 24 20 25
REMARK Flexibility Score: inf
ROOT
ATOM      1  C   UNL     1       3.015   0.172  -0.590  1.00  0.00     0.152 A 
ATOM      2  C   UNL     1       2.538   0.082   0.736  1.00  0.00     0.083 A 
ATOM      3  C   UNL     1       3.460   0.037   1.793  1.00  0.00     0.020 A 
ATOM      4  C   UNL     1       4.829   0.122   1.544  1.00  0.00     0.028 A 
ATOM      5  C   UNL     1       5.310   0.251   0.235  1.00  0.00     0.054 A 
ATOM      6  C   UNL     1       4.396   0.276  -0.838  1.00  0.00     0.106 A 
ATOM      7  Cl  UNL     1       4.954   0.423  -2.504  1.00  0.00    -0.078 Cl
ENDROOT
BRANCH   1   8
ATOM      8  O   UNL     1       2.127   0.140  -1.667  1.00  0.00    -0.494 OA
ATOM      9  C   UNL     1       1.678  -1.091  -2.217  1.00  0.00     0.278 C 
ENDBRANCH   1   8
BRANCH   2  10
ATOM     10  C   UNL     1       1.089   0.027   1.040  1.00  0.00     0.255 C 
ATOM     11  O   UNL     1       0.686  -0.688   1.998  1.00  0.00    -0.269 OA
ATOM     12  N   UNL     1       0.148   0.810   0.288  1.00  0.00    -0.349 N 
ATOM     13  H   UNL     1       0.521   1.553  -0.347  1.00  0.00     0.164 HD
BRANCH  12  14
ATOM     14  C   UNL     1      -1.303   0.690   0.481  1.00  0.00     0.088 C 
ATOM     15  C   UNL     1      -2.022   1.894  -0.175  1.00  0.00     0.041 C 
ATOM     16  C   UNL     1      -1.814  -0.681  -0.075  1.00  0.00     0.026 C 
ATOM     17  C   UNL     1      -3.545   1.674  -0.301  1.00  0.00     0.086 C 
ATOM     18  C   UNL     1      -2.546  -1.505   1.007  1.00  0.00     0.008 C 
ATOM     19  C   UNL     1      -2.778  -0.480  -1.254  1.00  0.00     0.090 C 
ATOM     20  N   UNL     1      -3.930   0.323  -0.801  1.00  0.00    -0.303 NA
ATOM     21  C   UNL     1      -3.879  -0.859   1.418  1.00  0.00     0.016 C 
ATOM     22  C   UNL     1      -4.718  -0.443   0.192  1.00  0.00     0.084 C 
ENDBRANCH  12  14
ENDBRANCH   2  10
BRANCH   5  23
ATOM     23  N   UNL     1       6.723   0.348   0.015  1.00  0.00    -0.397 N 
ATOM     24  H   UNL     1       7.387   0.324   0.821  1.00  0.00     0.156 HD
ATOM     25  H   UNL     1       7.130   0.445  -0.940  1.00  0.00     0.156 HD
ENDBRANCH   5  23
TORSDOF 4
