REMARK SMILES COc1ccc(C(=O)N2CCCC2=O)cc1
REMARK SMILES IDX 3 1 4 2 5 3 6 4 15 5 16 6 2 7 1 8 7 9 8 10 9 11 10 12 13 13
REMARK SMILES IDX 11 14 12 15 14 16
REMARK H PARENT
REMARK Flexibility Score: inf
ROOT
ATOM      1  C   UNL     1      -2.946  -0.180  -0.930  1.00  0.00     0.118 A 
ATOM      2  C   UNL     1      -2.302   0.021   0.306  1.00  0.00     0.047 A 
ATOM      3  C   UNL     1      -0.966  -0.353   0.474  1.00  0.00     0.017 A 
ATOM      4  C   UNL     1      -0.247  -0.922  -0.589  1.00  0.00     0.040 A 
ATOM      5  C   UNL     1      -0.897  -1.141  -1.813  1.00  0.00     0.017 A 
ATOM      6  C   UNL     1      -2.233  -0.766  -1.982  1.00  0.00     0.047 A 
ENDROOT
BRANCH   1   7
ATOM      7  O   UNL     1      -4.284   0.180  -1.150  1.00  0.00    -0.497 OA
ATOM      8  C   UNL     1      -5.125   0.782  -0.171  1.00  0.00     0.278 C 
ENDBRANCH   1   7
BRANCH   4   9
ATOM      9  C   UNL     1       1.162  -1.332  -0.414  1.00  0.00     0.260 C 
ATOM     10  O   UNL     1       1.555  -2.407  -0.943  1.00  0.00    -0.269 OA
BRANCH   9  11
ATOM     11  N   UNL     1       2.094  -0.518   0.321  1.00  0.00    -0.279 N 
ATOM     12  C   UNL     1       2.044   0.935   0.394  1.00  0.00     0.129 C 
ATOM     13  C   UNL     1       3.344  -0.966   0.813  1.00  0.00     0.229 C 
ATOM     14  C   UNL     1       3.435   1.392   0.875  1.00  0.00     0.032 C 
ATOM     15  C   UNL     1       4.220   0.132   1.264  1.00  0.00     0.102 C 
ATOM     16  O   UNL     1       3.666  -2.183   0.879  1.00  0.00    -0.274 OA
ENDBRANCH   9  11
ENDBRANCH   4   9
TORSDOF 3
