REMARK SMILES CC(Cc1ccccc1)NCCC(c1ccccc1)c1ccccc1
REMARK SMILES IDX 11 1 10 2 2 4 1 5 3 6 4 7 5 8 9 9 6 10 8 11 7 12 12 13 13 14
REMARK SMILES IDX 14 15 15 16 19 17 16 18 18 19 17 20 20 21 21 22 25 23 22 24
REMARK SMILES IDX 24 25 23 26
REMARK H PARENT 10 3
REMARK Flexibility Score: inf
ROOT
ATOM      1  C   UNL     1       0.111  -0.744  -0.181  1.00  0.00     0.082 C 
ENDROOT
BRANCH   1   2
ATOM      2  N   UNL     1       0.893   0.481   0.064  1.00  0.00    -0.314 NA
ATOM      3  H   UNL     1       0.417   1.274  -0.426  1.00  0.00     0.122 HD
BRANCH   2   4
ATOM      4  C   UNL     1       2.286   0.427  -0.429  1.00  0.00     0.054 C 
ATOM      5  C   UNL     1       2.374   0.011  -1.909  1.00  0.00     0.024 C 
BRANCH   4   6
ATOM      6  C   UNL     1       3.163  -0.458   0.486  1.00  0.00     0.054 C 
BRANCH   6   7
ATOM      7  C   UNL     1       4.633  -0.202   0.270  1.00  0.00    -0.046 A 
ATOM      8  C   UNL     1       5.256   0.900   0.881  1.00  0.00     0.004 A 
ATOM      9  C   UNL     1       5.387  -1.037  -0.572  1.00  0.00     0.004 A 
ATOM     10  C   UNL     1       6.614   1.153   0.663  1.00  0.00     0.000 A 
ATOM     11  C   UNL     1       6.744  -0.781  -0.788  1.00  0.00     0.000 A 
ATOM     12  C   UNL     1       7.357   0.313  -0.171  1.00  0.00     0.000 A 
ENDBRANCH   6   7
ENDBRANCH   4   6
ENDBRANCH   2   4
ENDBRANCH   1   2
BRANCH   1  13
ATOM     13  C   UNL     1      -1.084  -0.832   0.782  1.00  0.00     0.028 C 
BRANCH  13  14
ATOM     14  C   UNL     1      -2.149   0.271   0.553  1.00  0.00     0.050 C 
BRANCH  14  15
ATOM     15  C   UNL     1      -3.232   0.293   1.622  1.00  0.00    -0.040 A 
ATOM     16  C   UNL     1      -3.787  -0.889   2.158  1.00  0.00     0.004 A 
ATOM     17  C   UNL     1      -3.754   1.532   2.041  1.00  0.00     0.004 A 
ATOM     18  C   UNL     1      -4.809  -0.824   3.110  1.00  0.00     0.000 A 
ATOM     19  C   UNL     1      -4.777   1.590   2.993  1.00  0.00     0.000 A 
ATOM     20  C   UNL     1      -5.302   0.413   3.528  1.00  0.00     0.000 A 
ENDBRANCH  14  15
BRANCH  14  21
ATOM     21  C   UNL     1      -2.774   0.191  -0.828  1.00  0.00    -0.040 A 
ATOM     22  C   UNL     1      -3.488  -0.950  -1.241  1.00  0.00     0.004 A 
ATOM     23  C   UNL     1      -2.645   1.272  -1.720  1.00  0.00     0.004 A 
ATOM     24  C   UNL     1      -4.055  -1.007  -2.518  1.00  0.00     0.000 A 
ATOM     25  C   UNL     1      -3.213   1.210  -2.996  1.00  0.00     0.000 A 
ATOM     26  C   UNL     1      -3.917   0.071  -3.395  1.00  0.00     0.000 A 
ENDBRANCH  14  21
ENDBRANCH  13  14
ENDBRANCH   1  13
TORSDOF 8
