REMARK SMILES CC(=O)O[C@]1(C(C)=O)CC[C@H]2[C@@H]3C=C(Cl)C4=CC(=O)[C@@H]5C[C@@H]5[C@]4(C)[C@H]3CC[C@@]21C
REMARK SMILES IDX 20 1 21 2 22 3 23 4 24 5 16 6 17 7 18 8 19 9 14 10 15 11
REMARK SMILES IDX 13 12 12 13 11 14 10 15 9 16 5 17 28 18 29 19 27 20 26 21
REMARK SMILES IDX 25 22 4 23 2 24 1 25 3 26 6 27 7 28 8 29
REMARK H PARENT
REMARK Flexibility Score: inf
ROOT
ATOM      1  C   UNL     1      -4.983   1.371   1.347  1.00  0.00     0.065 C 
ATOM      2  C   UNL     1      -3.980   2.193   0.538  1.00  0.00     0.017 C 
ATOM      3  C   UNL     1      -3.490   1.158   1.545  1.00  0.00     0.011 C 
ATOM      4  C   UNL     1      -2.856  -0.160   0.997  1.00  0.00     0.001 C 
ATOM      5  C   UNL     1      -2.874  -1.174   2.165  1.00  0.00     0.017 C 
ATOM      6  C   UNL     1      -3.638  -0.796  -0.167  1.00  0.00    -0.020 C 
ATOM      7  C   UNL     1      -4.968  -0.634  -0.274  1.00  0.00     0.053 C 
ATOM      8  C   UNL     1      -5.701   0.329   0.552  1.00  0.00     0.159 C 
ATOM      9  O   UNL     1      -6.959   0.318   0.547  1.00  0.00    -0.295 OA
ATOM     10  C   UNL     1      -2.916  -1.683  -1.131  1.00  0.00     0.041 C 
ATOM     11  Cl  UNL     1      -3.778  -2.581  -2.383  1.00  0.00    -0.084 Cl
ATOM     12  C   UNL     1      -1.582  -1.797  -1.114  1.00  0.00    -0.002 C 
ATOM     13  C   UNL     1      -0.718  -1.151  -0.059  1.00  0.00     0.021 C 
ATOM     14  C   UNL     1       0.666  -0.760  -0.620  1.00  0.00     0.007 C 
ATOM     15  C   UNL     1       1.516  -1.824  -1.304  1.00  0.00     0.009 C 
ATOM     16  C   UNL     1       2.958  -1.288  -1.216  1.00  0.00     0.058 C 
ATOM     17  C   UNL     1       2.904   0.030  -0.377  1.00  0.00     0.175 C 
ATOM     18  C   UNL     1       1.592  -0.152   0.449  1.00  0.00     0.018 C 
ATOM     19  C   UNL     1       1.850  -1.114   1.660  1.00  0.00     0.016 C 
ATOM     20  C   UNL     1       0.934   1.155   0.961  1.00  0.00     0.012 C 
ATOM     21  C   UNL     1      -0.491   0.897   1.509  1.00  0.00     0.006 C 
ATOM     22  C   UNL     1      -1.401   0.139   0.493  1.00  0.00     0.007 C 
ENDROOT
BRANCH  17  23
ATOM     23  O   UNL     1       2.737   1.144  -1.271  1.00  0.00    -0.451 OA
BRANCH  23  24
ATOM     24  C   UNL     1       3.698   1.606  -2.182  1.00  0.00     0.303 C 
ATOM     25  C   UNL     1       3.376   2.778  -3.044  1.00  0.00     0.139 C 
ATOM     26  O   UNL     1       4.837   1.071  -2.254  1.00  0.00    -0.253 OA
ENDBRANCH  23  24
ENDBRANCH  17  23
BRANCH  17  27
ATOM     27  C   UNL     1       4.124   0.297   0.509  1.00  0.00     0.173 C 
ATOM     28  C   UNL     1       5.281  -0.655   0.624  1.00  0.00     0.092 C 
ATOM     29  O   UNL     1       4.162   1.335   1.153  1.00  0.00    -0.295 OA
ENDBRANCH  17  27
TORSDOF 3
