REMARK SMILES Fc1ccc(C(c2ccc(F)cc2)N2CCN(C/C=C/c3ccccc3)CC2)cc1
REMARK SMILES IDX 14 1 15 2 16 3 17 4 27 5 28 6 6 7 5 8 1 9 2 10 3 11 30 12
REMARK SMILES IDX 4 13 29 14 7 15 8 16 13 17 9 18 12 19 10 20 11 21 18 22
REMARK SMILES IDX 19 23 20 24 21 25 22 26 26 27 23 28 25 29 24 30
REMARK H PARENT
REMARK Flexibility Score: inf
ROOT
ATOM      1  N   UNL     1      -1.020  -1.047   0.878  1.00  0.00    -0.290 NA
ATOM      2  C   UNL     1      -0.999  -2.480   1.242  1.00  0.00     0.101 C 
ATOM      3  C   UNL     1       0.347  -3.115   0.829  1.00  0.00     0.100 C 
ATOM      4  N   UNL     1       1.469  -2.148   0.808  1.00  0.00    -0.297 NA
ATOM      5  C   UNL     1       1.304  -1.116   1.853  1.00  0.00     0.100 C 
ATOM      6  C   UNL     1      -0.010  -0.323   1.693  1.00  0.00     0.101 C 
ENDROOT
BRANCH   1   7
ATOM      7  C   UNL     1      -2.378  -0.457   1.049  1.00  0.00     0.117 C 
BRANCH   7   8
ATOM      8  C   UNL     1      -2.393   1.032   0.741  1.00  0.00    -0.026 A 
ATOM      9  F   UNL     1      -2.523   5.106  -0.105  1.00  0.00    -0.207 F 
ATOM     10  C   UNL     1      -2.482   3.781   0.167  1.00  0.00     0.123 A 
ATOM     11  C   UNL     1      -1.837   2.906  -0.710  1.00  0.00     0.039 A 
ATOM     12  C   UNL     1      -3.087   3.289   1.326  1.00  0.00     0.039 A 
ATOM     13  C   UNL     1      -1.794   1.539  -0.430  1.00  0.00     0.009 A 
ATOM     14  C   UNL     1      -3.047   1.922   1.611  1.00  0.00     0.009 A 
ENDBRANCH   7   8
BRANCH   7  15
ATOM     15  C   UNL     1      -3.410  -1.121   0.151  1.00  0.00    -0.026 A 
ATOM     16  C   UNL     1      -3.102  -1.485  -1.175  1.00  0.00     0.009 A 
ATOM     17  C   UNL     1      -4.720  -1.318   0.624  1.00  0.00     0.009 A 
ATOM     18  C   UNL     1      -4.077  -2.062  -1.995  1.00  0.00     0.039 A 
ATOM     19  C   UNL     1      -5.692  -1.893  -0.201  1.00  0.00     0.039 A 
ATOM     20  C   UNL     1      -5.370  -2.267  -1.509  1.00  0.00     0.123 A 
ATOM     21  F   UNL     1      -6.316  -2.822  -2.307  1.00  0.00    -0.207 F 
ENDBRANCH   7  15
ENDBRANCH   1   7
BRANCH   4  22
ATOM     22  C   UNL     1       1.697  -1.577  -0.539  1.00  0.00     0.112 C 
BRANCH  22  23
ATOM     23  C   UNL     1       3.012  -0.854  -0.592  1.00  0.00    -0.011 C 
ATOM     24  C   UNL     1       3.101   0.413  -1.013  1.00  0.00     0.005 C 
BRANCH  24  25
ATOM     25  C   UNL     1       4.381   1.157  -1.077  1.00  0.00    -0.026 A 
ATOM     26  C   UNL     1       5.458   0.869  -0.214  1.00  0.00     0.008 A 
ATOM     27  C   UNL     1       4.512   2.206  -2.002  1.00  0.00     0.008 A 
ATOM     28  C   UNL     1       6.647   1.601  -0.300  1.00  0.00     0.001 A 
ATOM     29  C   UNL     1       5.704   2.932  -2.087  1.00  0.00     0.001 A 
ATOM     30  C   UNL     1       6.772   2.627  -1.239  1.00  0.00     0.000 A 
ENDBRANCH  24  25
ENDBRANCH  22  23
ENDBRANCH   4  22
TORSDOF 6
