REMARK SMILES CN1CC[C@@]2(C)c3cc(OC(=O)Nc4ccccc4)ccc3N(C)[C@@H]12
REMARK SMILES IDX 11 1 12 2 13 3 10 5 9 6 25 7 2 8 5 9 23 10 1 11 3 12 4 13
REMARK SMILES IDX 6 14 7 15 22 16 24 17 8 18 21 19 20 20 14 21 15 22 19 23
REMARK SMILES IDX 16 24 18 25 17 26
REMARK H PARENT 13 4
REMARK Flexibility Score: inf
ROOT
ATOM      1  C   UNL     1       2.937  -0.472   0.432  1.00  0.00     0.417 C 
ATOM      2  O   UNL     1       2.599  -0.323  -0.774  1.00  0.00    -0.224 OA
ATOM      3  N   UNL     1       4.261  -0.131   0.864  1.00  0.00    -0.291 N 
ATOM      4  H   UNL     1       4.420  -0.046   1.893  1.00  0.00     0.173 HD
ENDROOT
BRANCH   1   5
ATOM      5  O   UNL     1       2.032  -0.988   1.369  1.00  0.00    -0.410 OA
BRANCH   5   6
ATOM      6  C   UNL     1       0.645  -1.089   1.187  1.00  0.00     0.133 A 
ATOM      7  C   UNL     1      -3.805  -0.147  -0.188  1.00  0.00     0.163 C 
ATOM      8  N   UNL     1      -4.615   0.900   0.485  1.00  0.00    -0.286 NA
ATOM      9  C   UNL     1      -2.426   0.473  -0.552  1.00  0.00     0.030 C 
ATOM     10  N   UNL     1      -3.512  -1.308   0.667  1.00  0.00    -0.358 N 
ATOM     11  C   UNL     1      -4.644   0.798   1.958  1.00  0.00     0.107 C 
ATOM     12  C   UNL     1      -4.001   2.174   0.081  1.00  0.00     0.087 C 
ATOM     13  C   UNL     1      -2.513   1.929  -0.098  1.00  0.00     0.031 C 
ATOM     14  C   UNL     1      -2.120   0.349  -2.055  1.00  0.00     0.020 C 
ATOM     15  C   UNL     1      -1.460  -0.341   0.260  1.00  0.00    -0.011 A 
ATOM     16  C   UNL     1      -2.117  -1.348   0.914  1.00  0.00     0.042 A 
ATOM     17  C   UNL     1      -4.441  -2.401   0.939  1.00  0.00     0.145 C 
ATOM     18  C   UNL     1      -0.077  -0.181   0.381  1.00  0.00     0.053 A 
ATOM     19  C   UNL     1      -1.436  -2.252   1.731  1.00  0.00     0.030 A 
ATOM     20  C   UNL     1      -0.047  -2.112   1.869  1.00  0.00     0.049 A 
ENDBRANCH   5   6
ENDBRANCH   1   5
BRANCH   3  21
ATOM     21  C   UNL     1       5.337   0.226  -0.022  1.00  0.00     0.044 A 
ATOM     22  C   UNL     1       6.288   1.170   0.397  1.00  0.00     0.026 A 
ATOM     23  C   UNL     1       5.495  -0.396  -1.275  1.00  0.00     0.026 A 
ATOM     24  C   UNL     1       7.356   1.517  -0.437  1.00  0.00     0.002 A 
ATOM     25  C   UNL     1       6.565  -0.046  -2.105  1.00  0.00     0.002 A 
ATOM     26  C   UNL     1       7.492   0.912  -1.689  1.00  0.00     0.000 A 
ENDBRANCH   3  21
TORSDOF 3
