REMARK SMILES O=C(O)c1cccnc1Nc1cccc(C(F)(F)F)c1
REMARK SMILES IDX 4 1 9 2 8 3 7 4 6 5 5 6 2 7 1 8 3 9 10 11 11 13 12 14 20 15
REMARK SMILES IDX 13 16 15 17 14 18 16 19 17 20 18 21 19 22
REMARK H PARENT 3 10 10 12
REMARK Flexibility Score: inf
ROOT
ATOM      1  C   UNL     1      -2.756  -0.313  -0.250  1.00  0.00     0.102 A 
ATOM      2  C   UNL     1      -1.463  -0.371   0.325  1.00  0.00     0.144 A 
ATOM      3  N   UNL     1      -0.933  -1.580   0.663  1.00  0.00    -0.238 NA
ATOM      4  C   UNL     1      -1.597  -2.747   0.464  1.00  0.00     0.113 A 
ATOM      5  C   UNL     1      -2.877  -2.735  -0.083  1.00  0.00     0.021 A 
ATOM      6  C   UNL     1      -3.456  -1.518  -0.437  1.00  0.00     0.021 A 
ENDROOT
BRANCH   1   7
ATOM      7  C   UNL     1      -3.368   0.958  -0.704  1.00  0.00     0.339 C 
ATOM      8  O   UNL     1      -4.621   1.051  -0.818  1.00  0.00    -0.246 OA
BRANCH   7   9
ATOM      9  O   UNL     1      -2.573   2.047  -1.051  1.00  0.00    -0.478 OA
ATOM     10  H   UNL     1      -2.988   2.912  -1.377  1.00  0.00     0.297 HD
ENDBRANCH   7   9
ENDBRANCH   1   7
BRANCH   2  11
ATOM     11  N   UNL     1      -0.736   0.826   0.651  1.00  0.00    -0.340 N 
ATOM     12  H   UNL     1      -1.274   1.634   1.038  1.00  0.00     0.168 HD
BRANCH  11  13
ATOM     13  C   UNL     1       0.699   0.912   0.637  1.00  0.00     0.040 A 
ATOM     14  C   UNL     1       1.340   1.868   1.438  1.00  0.00     0.026 A 
ATOM     15  C   UNL     1       1.475   0.096  -0.208  1.00  0.00     0.039 A 
ATOM     16  C   UNL     1       2.730   1.994   1.415  1.00  0.00     0.003 A 
ATOM     17  C   UNL     1       2.877   0.200  -0.219  1.00  0.00     0.058 A 
ATOM     18  C   UNL     1       3.497   1.169   0.589  1.00  0.00     0.013 A 
BRANCH  17  19
ATOM     19  C   UNL     1       3.683  -0.664  -1.156  1.00  0.00     0.416 C 
ATOM     20  F   UNL     1       3.582  -0.162  -2.440  1.00  0.00    -0.166 F 
ATOM     21  F   UNL     1       3.200  -1.961  -1.138  1.00  0.00    -0.166 F 
ATOM     22  F   UNL     1       5.018  -0.693  -0.789  1.00  0.00    -0.166 F 
ENDBRANCH  17  19
ENDBRANCH  11  13
ENDBRANCH   2  11
TORSDOF 5
