REMARK SMILES C[C@H]1CNCCc2ccc(Cl)cc21
REMARK SMILES IDX 6 1 7 2 13 3 12 4 8 5 10 6 9 7 11 8 2 9 1 10 5 12 4 13 3 15
REMARK H PARENT 4 14
REMARK Flexibility Score: 70.00
ROOT
ATOM      1  C   UNL     1      -0.256  -1.990  -0.400  1.00  0.00     0.051 C 
ENDROOT
BRANCH   1   2
ATOM      2  C   UNL     1       0.788  -0.891  -0.305  1.00  0.00    -0.043 A 
ATOM      3  C   UNL     1       0.513   0.466   0.076  1.00  0.00    -0.039 A 
ATOM      4  C   UNL     1       1.617   1.352   0.176  1.00  0.00     0.024 A 
ATOM      5  C   UNL     1       2.098  -1.252  -0.678  1.00  0.00     0.005 A 
ATOM      6  C   UNL     1       2.908   0.956  -0.174  1.00  0.00     0.041 A 
ATOM      7  C   UNL     1       3.144  -0.339  -0.614  1.00  0.00     0.021 A 
ATOM      8  Cl  UNL     1       4.238   2.096  -0.061  1.00  0.00    -0.084 Cl
BRANCH   3   9
ATOM      9  C   UNL     1      -0.894   0.959   0.486  1.00  0.00     0.030 CG0
ATOM     10  C   UNL     1      -1.075   2.487   0.336  1.00  0.00     0.014 C 
ATOM     11  G   UNL     1      -2.023   0.251  -0.305  1.00  0.00     0.000 G0
ENDBRANCH   3   9
ENDBRANCH   1   2
BRANCH   1  12
ATOM     12  C   UNL     1      -1.335  -1.907   0.685  1.00  0.00     0.085 C 
BRANCH  12  13
ATOM     13  N   UNL     1      -2.442  -1.013   0.318  1.00  0.00    -0.316 NA
ATOM     14  H   UNL     1      -3.058  -1.515  -0.365  1.00  0.00     0.122 HD
BRANCH  13  15
ATOM     15  C   UNL     1      -2.023   0.251  -0.305  1.00  0.00     0.089 CG0
ATOM     16  G   UNL     1      -0.894   0.959   0.486  1.00  0.00     0.000 G0
ENDBRANCH  13  15
ENDBRANCH  12  13
ENDBRANCH   1  12
TORSDOF 0
