REMARK SMILES CO/C(=C/C(N)=O)[C@H](C)[C@H](/C=C/c1csc(-c2csc([C@@H](C)/C=C/C=C/C(C)C)n2)n1)OC
REMARK SMILES IDX 13 1 14 2 15 3 16 4 31 5 12 6 11 7 10 8 32 9 33 10 8 11 9 12
REMARK SMILES IDX 3 13 4 14 2 15 1 16 5 17 6 18 7 19 17 22 18 23 30 24 19 25
REMARK SMILES IDX 20 26 21 27 22 28 23 29 24 30 25 31 26 32 27 33 28 34 29 35
REMARK H PARENT 6 20 6 21
REMARK Flexibility Score: inf
ROOT
ATOM      1  C   UNL     1      -1.634   0.383   0.920  1.00  0.00     0.074 A 
ATOM      2  C   UNL     1      -1.411   1.416   1.835  1.00  0.00     0.095 A 
ATOM      3  S   UNL     1       0.137   1.226   2.462  1.00  0.00    -0.120 S 
ATOM      4  C   UNL     1       0.459  -0.153   1.559  1.00  0.00     0.143 A 
ATOM      5  N   UNL     1      -0.592  -0.482   0.777  1.00  0.00    -0.235 NA
ENDROOT
BRANCH   1   6
ATOM      6  C   UNL     1      -2.870   0.193   0.135  1.00  0.00     0.027 C 
ATOM      7  C   UNL     1      -3.908   1.040   0.161  1.00  0.00     0.007 C 
BRANCH   7   8
ATOM      8  C   UNL     1      -5.138   0.803  -0.685  1.00  0.00     0.151 C 
BRANCH   8   9
ATOM      9  O   UNL     1      -5.933   1.977  -0.700  1.00  0.00    -0.377 OA
ATOM     10  C   UNL     1      -5.531   2.838  -1.744  1.00  0.00     0.195 C 
ENDBRANCH   8   9
BRANCH   8  11
ATOM     11  C   UNL     1      -5.972  -0.382  -0.132  1.00  0.00     0.085 C 
ATOM     12  C   UNL     1      -6.471  -0.149   1.306  1.00  0.00     0.019 C 
BRANCH  11  13
ATOM     13  C   UNL     1      -7.062  -0.805  -1.130  1.00  0.00     0.107 C 
ATOM     14  C   UNL     1      -8.262  -0.203  -1.262  1.00  0.00     0.113 C 
BRANCH  13  15
ATOM     15  O   UNL     1      -6.814  -1.838  -2.053  1.00  0.00    -0.501 OA
ATOM     16  C   UNL     1      -5.609  -2.591  -2.153  1.00  0.00     0.278 C 
ENDBRANCH  13  15
BRANCH  14  17
ATOM     17  C   UNL     1      -8.779   0.911  -0.461  1.00  0.00     0.244 C 
ATOM     18  N   UNL     1      -8.886   2.213  -1.034  1.00  0.00    -0.366 N 
ATOM     19  O   UNL     1      -9.255   0.692   0.685  1.00  0.00    -0.270 OA
ATOM     20  H   UNL     1      -9.293   2.998  -0.479  1.00  0.00     0.159 HD
ATOM     21  H   UNL     1      -8.554   2.394  -2.007  1.00  0.00     0.159 HD
ENDBRANCH  14  17
ENDBRANCH  11  13
ENDBRANCH   8  11
ENDBRANCH   7   8
ENDBRANCH   1   6
BRANCH   4  22
ATOM     22  C   UNL     1       1.721  -0.903   1.586  1.00  0.00     0.110 A 
ATOM     23  C   UNL     1       1.921  -2.086   0.878  1.00  0.00     0.098 A 
ATOM     24  N   UNL     1       2.798  -0.467   2.297  1.00  0.00    -0.238 NA
ATOM     25  S   UNL     1       3.498  -2.593   1.160  1.00  0.00    -0.126 S 
ATOM     26  C   UNL     1       3.860  -1.290   2.164  1.00  0.00     0.100 A 
BRANCH  26  27
ATOM     27  C   UNL     1       5.192  -1.028   2.810  1.00  0.00     0.068 C 
ATOM     28  C   UNL     1       5.490  -2.097   3.864  1.00  0.00     0.020 C 
BRANCH  27  29
ATOM     29  C   UNL     1       6.281  -0.977   1.767  1.00  0.00    -0.017 C 
ATOM     30  C   UNL     1       6.291  -0.031   0.822  1.00  0.00    -0.004 C 
BRANCH  30  31
ATOM     31  C   UNL     1       7.326  -0.014  -0.224  1.00  0.00    -0.004 C 
ATOM     32  C   UNL     1       7.302   0.900  -1.200  1.00  0.00    -0.024 C 
BRANCH  32  33
ATOM     33  C   UNL     1       8.312   0.924  -2.322  1.00  0.00     0.005 C 
ATOM     34  C   UNL     1       9.732   1.166  -1.795  1.00  0.00     0.012 C 
ATOM     35  C   UNL     1       8.244  -0.357  -3.161  1.00  0.00     0.012 C 
ENDBRANCH  32  33
ENDBRANCH  30  31
ENDBRANCH  27  29
ENDBRANCH  26  27
ENDBRANCH   4  22
TORSDOF 12
