REMARK SMILES CCCC(=O)OCOC(=O)C1=C(C)NC(C)=C(C(=O)OC)C1c1cccc(Cl)c1Cl
REMARK SMILES IDX 7 1 6 2 4 3 5 4 3 5 2 6 1 7 8 8 9 9 10 10 11 11 12 12 22 13
REMARK SMILES IDX 13 14 14 15 17 16 15 17 16 19 23 20 24 21 29 22 25 23 27 24
REMARK SMILES IDX 30 25 26 26 28 27 18 28 19 29 20 30 21 31
REMARK H PARENT 14 18
REMARK Flexibility Score: inf
ROOT
ATOM      1  C   UNL     1       2.174  -0.530  -3.169  1.00  0.00     0.474 C 
ENDROOT
BRANCH   1   2
ATOM      2  O   UNL     1       3.365  -0.992  -2.539  1.00  0.00    -0.428 OA
BRANCH   2   3
ATOM      3  C   UNL     1       4.332  -0.124  -2.023  1.00  0.00     0.308 C 
ATOM      4  O   UNL     1       4.255   1.120  -2.223  1.00  0.00    -0.252 OA
BRANCH   3   5
ATOM      5  C   UNL     1       5.432  -0.672  -1.172  1.00  0.00     0.122 C 
BRANCH   5   6
ATOM      6  C   UNL     1       5.024  -0.638   0.304  1.00  0.00     0.008 C 
ATOM      7  C   UNL     1       6.123  -1.214   1.193  1.00  0.00     0.004 C 
ENDBRANCH   5   6
ENDBRANCH   3   5
ENDBRANCH   2   3
ENDBRANCH   1   2
BRANCH   1   8
ATOM      8  O   UNL     1       1.350   0.140  -2.220  1.00  0.00    -0.424 OA
BRANCH   8   9
ATOM      9  C   UNL     1       0.775  -0.510  -1.122  1.00  0.00     0.339 C 
ATOM     10  O   UNL     1       0.904  -1.758  -0.990  1.00  0.00    -0.246 OA
BRANCH   9  11
ATOM     11  C   UNL     1      -0.039   0.247  -0.138  1.00  0.00     0.068 C 
ATOM     12  C   UNL     1       0.287   1.497   0.256  1.00  0.00     0.023 C 
ATOM     13  C   UNL     1      -1.308  -0.418   0.374  1.00  0.00     0.099 C 
ATOM     14  C   UNL     1       1.532   2.196  -0.227  1.00  0.00     0.065 C 
ATOM     15  N   UNL     1      -0.552   2.185   1.192  1.00  0.00    -0.362 N 
ATOM     16  C   UNL     1      -1.969   0.270   1.563  1.00  0.00     0.068 C 
ATOM     17  C   UNL     1      -1.596   1.522   1.919  1.00  0.00     0.023 C 
ATOM     18  H   UNL     1      -0.340   3.184   1.414  1.00  0.00     0.166 HD
ATOM     19  C   UNL     1      -2.215   2.257   3.080  1.00  0.00     0.065 C 
BRANCH  13  20
ATOM     20  C   UNL     1      -2.310  -0.540  -0.768  1.00  0.00    -0.015 A 
ATOM     21  C   UNL     1      -2.845   0.637  -1.328  1.00  0.00     0.006 A 
ATOM     22  C   UNL     1      -2.714  -1.795  -1.295  1.00  0.00     0.063 A 
ATOM     23  C   UNL     1      -3.761   0.577  -2.377  1.00  0.00     0.002 A 
ATOM     24  C   UNL     1      -3.640  -1.840  -2.357  1.00  0.00     0.059 A 
ATOM     25  Cl  UNL     1      -2.082  -3.316  -0.654  1.00  0.00    -0.082 Cl
ATOM     26  C   UNL     1      -4.157  -0.656  -2.889  1.00  0.00     0.022 A 
ATOM     27  Cl  UNL     1      -4.173  -3.370  -3.045  1.00  0.00    -0.083 Cl
ENDBRANCH  13  20
BRANCH  16  28
ATOM     28  C   UNL     1      -3.061  -0.474   2.252  1.00  0.00     0.336 C 
ATOM     29  O   UNL     1      -3.059  -1.736   2.233  1.00  0.00    -0.246 OA
BRANCH  28  30
ATOM     30  O   UNL     1      -4.116   0.206   2.870  1.00  0.00    -0.466 OA
ATOM     31  C   UNL     1      -5.193  -0.465   3.511  1.00  0.00     0.282 C 
ENDBRANCH  28  30
ENDBRANCH  16  28
ENDBRANCH   9  11
ENDBRANCH   8   9
ENDBRANCH   1   8
TORSDOF 10
