REMARK SMILES O=c1ccc2ccccc2o1
REMARK SMILES IDX 1 1 2 2 11 3 10 4 9 5 8 6 7 7 6 8 5 9 4 10 3 11
REMARK H PARENT
REMARK Flexibility Score: inf
ROOT
ATOM      1  O   UNL     1      -3.124   2.164  -0.171  1.00  0.00    -0.246 OA
ATOM      2  C   UNL     1      -2.210   1.300  -0.115  1.00  0.00     0.336 A 
ATOM      3  O   UNL     1      -0.938   1.689  -0.079  1.00  0.00    -0.423 OA
ATOM      4  C   UNL     1       0.073   0.825  -0.019  1.00  0.00     0.138 A 
ATOM      5  C   UNL     1       1.392   1.291   0.016  1.00  0.00     0.048 A 
ATOM      6  C   UNL     1       2.454   0.384   0.079  1.00  0.00     0.004 A 
ATOM      7  C   UNL     1       2.203  -0.992   0.106  1.00  0.00     0.001 A 
ATOM      8  C   UNL     1       0.889  -1.470   0.071  1.00  0.00     0.012 A 
ATOM      9  C   UNL     1      -0.181  -0.565   0.008  1.00  0.00     0.018 A 
ATOM     10  C   UNL     1      -1.509  -1.001  -0.028  1.00  0.00     0.019 A 
ATOM     11  C   UNL     1      -2.536  -0.060  -0.090  1.00  0.00     0.094 A 
ENDROOT
TORSDOF 0
