REMARK SMILES CC(C)[C@@H]1NC(=O)[C@H](CCCCN)NC(=O)[C@@H](Cc2c[nH]c3ccccc23)NC(=O)[C@H](Cc2ccc(O)cc2)NC(=O)[C@@H](NC(=O)[C@H](N)Cc2ccccc2)CSSC[C@@H](C(=O)N[C@@H](Cc2c[nH]c3ccccc23)C(N)=O)NC1=O
REMARK SMILES IDX 14 1 15 2 16 3 8 5 6 6 5 7 7 9 4 10 2 11 1 12 3 13 79 14
REMARK SMILES IDX 78 15 80 16 60 18 59 19 58 20 57 21 56 22 61 24 62 25 63 26
REMARK SMILES IDX 64 28 65 29 66 30 67 31 74 32 68 33 69 34 73 35 70 37 72 38
REMARK SMILES IDX 71 39 75 40 76 41 77 42 9 45 10 46 11 47 12 48 13 49 17 52
REMARK SMILES IDX 18 53 19 54 20 55 27 56 21 57 22 58 26 59 23 61 25 62 24 63
REMARK SMILES IDX 28 64 29 65 30 67 31 68 32 69 33 70 34 71 39 72 35 73 38 74
REMARK SMILES IDX 36 75 37 76 40 78 41 79 42 81 43 82 44 84 45 85 46 87 47 88
REMARK SMILES IDX 48 89 49 92 50 93 51 94 55 95 52 96 54 97 53 98
REMARK H PARENT 14 4 5 8 78 17 63 27 68 36 76 43 76 44 13 50 13 51 21 60 28 66
REMARK H PARENT 37 77 40 80 44 86 48 90 48 91
REMARK Flexibility Score: 60.00
ROOT
ATOM      1  N   UNL     1      -0.884  -1.947   0.089  1.00  0.00    -0.343 N 
ATOM      2  C   UNL     1      -2.210  -2.014   0.610  1.00  0.00     0.243 C 
ATOM      3  O   UNL     1      -2.413  -2.574   1.720  1.00  0.00    -0.273 OA
ATOM      4  H   UNL     1      -0.321  -1.109   0.386  1.00  0.00     0.164 HD
ENDROOT
BRANCH   1   5
ATOM      5  C   UNL     1      -0.171  -3.154  -0.335  1.00  0.00     0.171 C 
BRANCH   5   6
ATOM      6  C   UNL     1       1.134  -2.751  -0.978  1.00  0.00     0.243 C 
ATOM      7  N   UNL     1       2.193  -2.230  -0.160  1.00  0.00    -0.342 N 
ATOM      8  H   UNL     1       1.937  -1.801   0.760  1.00  0.00     0.164 HD
ATOM      9  O   UNL     1       1.267  -2.796  -2.228  1.00  0.00    -0.273 OA
BRANCH   7  10
ATOM     10  C   UNL     1       3.613  -2.234  -0.527  1.00  0.00     0.174 C 
BRANCH  10  11
ATOM     11  C   UNL     1       4.249  -3.636  -0.273  1.00  0.00     0.015 C 
ATOM     12  C   UNL     1       3.630  -4.772  -1.107  1.00  0.00     0.010 C 
ATOM     13  C   UNL     1       4.204  -4.007   1.225  1.00  0.00     0.010 C 
ENDBRANCH  10  11
BRANCH  10  14
ATOM     14  C   UNL     1       3.846  -1.683  -1.924  1.00  0.00     0.243 C 
ATOM     15  N   UNL     1       3.183  -0.496  -2.403  1.00  0.00    -0.342 N 
ATOM     16  O   UNL     1       4.576  -2.326  -2.729  1.00  0.00    -0.273 OA
ATOM     17  H   UNL     1       2.781  -0.576  -3.365  1.00  0.00     0.164 HD
BRANCH  15  18
ATOM     18  C   UNL     1       3.410   0.887  -1.945  1.00  0.00     0.182 C 
BRANCH  18  19
ATOM     19  C   UNL     1       3.373   1.042  -0.418  1.00  0.00     0.116 C 
BRANCH  19  20
ATOM     20  S   UNL     1       3.424   2.806   0.048  1.00  0.00    -0.091 SA
BRANCH  20  21
ATOM     21  S   UNL     1       2.810   2.471   2.062  1.00  0.00    -0.091 SA
BRANCH  21  22
ATOM     22  C   UNL     1       1.464   3.708   2.001  1.00  0.00     0.116 CG0
ATOM     23  G   UNL     1       0.124   3.092   1.567  1.00  0.00     0.000 G0
ENDBRANCH  21  22
ENDBRANCH  20  21
ENDBRANCH  19  20
ENDBRANCH  18  19
BRANCH  18  24
ATOM     24  C   UNL     1       4.678   1.477  -2.531  1.00  0.00     0.244 C 
ATOM     25  O   UNL     1       4.656   2.674  -2.934  1.00  0.00    -0.273 OA
ATOM     26  N   UNL     1       5.913   0.750  -2.549  1.00  0.00    -0.342 N 
ATOM     27  H   UNL     1       5.897  -0.286  -2.654  1.00  0.00     0.164 HD
BRANCH  26  28
ATOM     28  C   UNL     1       7.218   1.418  -2.565  1.00  0.00     0.175 C 
BRANCH  28  29
ATOM     29  C   UNL     1       8.302   0.501  -1.970  1.00  0.00     0.072 C 
BRANCH  29  30
ATOM     30  C   UNL     1       7.946   0.076  -0.574  1.00  0.00    -0.020 A 
ATOM     31  C   UNL     1       7.262  -1.081  -0.214  1.00  0.00     0.087 A 
ATOM     32  C   UNL     1       8.091   0.802   0.590  1.00  0.00     0.003 A 
ATOM     33  N   UNL     1       7.008  -1.088   1.113  1.00  0.00    -0.361 N 
ATOM     34  C   UNL     1       7.509   0.065   1.591  1.00  0.00     0.046 A 
ATOM     35  C   UNL     1       8.675   2.045   0.836  1.00  0.00     0.010 A 
ATOM     36  H   UNL     1       6.503  -1.824   1.650  1.00  0.00     0.166 HD
ATOM     37  C   UNL     1       7.472   0.521   2.908  1.00  0.00     0.026 A 
ATOM     38  C   UNL     1       8.658   2.526   2.158  1.00  0.00     0.001 A 
ATOM     39  C   UNL     1       8.057   1.771   3.188  1.00  0.00     0.002 A 
ENDBRANCH  29  30
ENDBRANCH  28  29
BRANCH  28  40
ATOM     40  C   UNL     1       7.590   1.812  -3.967  1.00  0.00     0.240 C 
ATOM     41  N   UNL     1       8.479   2.906  -4.198  1.00  0.00    -0.368 N 
ATOM     42  O   UNL     1       7.147   1.158  -4.948  1.00  0.00    -0.273 OA
ATOM     43  H   UNL     1       8.719   3.200  -5.170  1.00  0.00     0.159 HD
ATOM     44  H   UNL     1       8.941   3.392  -3.393  1.00  0.00     0.159 HD
ENDBRANCH  28  40
ENDBRANCH  26  28
ENDBRANCH  18  24
ENDBRANCH  15  18
ENDBRANCH  10  14
ENDBRANCH   7  10
ENDBRANCH   5   6
BRANCH   5  45
ATOM     45  C   UNL     1      -1.053  -4.008  -1.281  1.00  0.00     0.035 C 
BRANCH  45  46
ATOM     46  C   UNL     1      -0.433  -5.360  -1.697  1.00  0.00     0.004 C 
BRANCH  46  47
ATOM     47  C   UNL     1      -0.265  -6.371  -0.547  1.00  0.00     0.015 C 
BRANCH  47  48
ATOM     48  C   UNL     1      -1.596  -6.846   0.055  1.00  0.00     0.077 C 
BRANCH  48  49
ATOM     49  N   UNL     1      -2.071  -5.923   1.081  1.00  0.00    -0.330 NA
ATOM     50  H   UNL     1      -2.978  -6.289   1.442  1.00  0.00     0.118 HD
ATOM     51  H   UNL     1      -1.399  -5.948   1.886  1.00  0.00     0.118 HD
ENDBRANCH  48  49
ENDBRANCH  47  48
ENDBRANCH  46  47
ENDBRANCH  45  46
ENDBRANCH   5  45
ENDBRANCH   1   5
BRANCH   2  52
ATOM     52  C   UNL     1      -3.339  -1.438  -0.204  1.00  0.00     0.175 C 
BRANCH  52  53
ATOM     53  C   UNL     1      -4.749  -1.574   0.410  1.00  0.00     0.072 C 
BRANCH  53  54
ATOM     54  C   UNL     1      -5.134  -3.003   0.681  1.00  0.00    -0.020 A 
ATOM     55  C   UNL     1      -5.433  -3.543   1.928  1.00  0.00     0.087 A 
ATOM     56  C   UNL     1      -5.271  -4.047  -0.220  1.00  0.00     0.003 A 
ATOM     57  N   UNL     1      -5.729  -4.858   1.818  1.00  0.00    -0.361 N 
ATOM     58  C   UNL     1      -5.616  -5.156   0.515  1.00  0.00     0.046 A 
ATOM     59  C   UNL     1      -5.134  -4.110  -1.609  1.00  0.00     0.010 A 
ATOM     60  H   UNL     1      -5.992  -5.502   2.593  1.00  0.00     0.166 HD
ATOM     61  C   UNL     1      -5.821  -6.400  -0.082  1.00  0.00     0.026 A 
ATOM     62  C   UNL     1      -5.314  -5.355  -2.234  1.00  0.00     0.001 A 
ATOM     63  C   UNL     1      -5.658  -6.493  -1.474  1.00  0.00     0.002 A 
ENDBRANCH  53  54
ENDBRANCH  52  53
BRANCH  52  64
ATOM     64  N   UNL     1      -3.071  -0.043  -0.580  1.00  0.00    -0.342 N 
ATOM     65  C   UNL     1      -2.515   0.994   0.252  1.00  0.00     0.243 C 
ATOM     66  H   UNL     1      -3.146   0.179  -1.597  1.00  0.00     0.164 HD
ATOM     67  O   UNL     1      -2.051   2.024  -0.312  1.00  0.00    -0.273 OA
BRANCH  65  68
ATOM     68  C   UNL     1      -2.528   0.936   1.766  1.00  0.00     0.175 C 
BRANCH  68  69
ATOM     69  C   UNL     1      -3.428   2.038   2.375  1.00  0.00     0.070 C 
BRANCH  69  70
ATOM     70  C   UNL     1      -4.890   1.799   2.055  1.00  0.00    -0.045 A 
ATOM     71  C   UNL     1      -5.721   1.141   2.978  1.00  0.00     0.007 A 
ATOM     72  C   UNL     1      -5.408   2.148   0.793  1.00  0.00     0.007 A 
ATOM     73  C   UNL     1      -7.045   0.839   2.643  1.00  0.00     0.046 A 
ATOM     74  C   UNL     1      -6.723   1.823   0.454  1.00  0.00     0.046 A 
ATOM     75  C   UNL     1      -7.545   1.165   1.373  1.00  0.00     0.115 A 
BRANCH  75  76
ATOM     76  O   UNL     1      -8.854   0.845   1.015  1.00  0.00    -0.508 OA
ATOM     77  H   UNL     1      -9.484   0.395   1.674  1.00  0.00     0.293 HD
ENDBRANCH  75  76
ENDBRANCH  69  70
ENDBRANCH  68  69
BRANCH  68  78
ATOM     78  N   UNL     1      -1.157   0.984   2.294  1.00  0.00    -0.342 N 
ATOM     79  C   UNL     1      -0.455   2.189   2.633  1.00  0.00     0.244 C 
ATOM     80  H   UNL     1      -0.804   0.115   2.744  1.00  0.00     0.164 HD
ATOM     81  O   UNL     1      -0.324   2.490   3.852  1.00  0.00    -0.273 OA
BRANCH  79  82
ATOM     82  C   UNL     1       0.124   3.092   1.567  1.00  0.00     0.182 CG0
ATOM     83  G   UNL     1       1.464   3.708   2.001  1.00  0.00     0.000 G0
BRANCH  82  84
ATOM     84  N   UNL     1      -0.817   4.175   1.273  1.00  0.00    -0.342 N 
ATOM     85  C   UNL     1      -0.881   4.815  -0.010  1.00  0.00     0.237 C 
ATOM     86  H   UNL     1      -1.319   4.624   2.072  1.00  0.00     0.164 HD
ATOM     87  O   UNL     1      -0.200   4.373  -0.975  1.00  0.00    -0.273 OA
BRANCH  85  88
ATOM     88  C   UNL     1      -1.811   5.978  -0.233  1.00  0.00     0.145 C 
BRANCH  88  89
ATOM     89  N   UNL     1      -1.594   6.986   0.810  1.00  0.00    -0.320 NA
ATOM     90  H   UNL     1      -0.581   7.247   0.808  1.00  0.00     0.119 HD
ATOM     91  H   UNL     1      -2.101   7.857   0.536  1.00  0.00     0.119 HD
ENDBRANCH  88  89
BRANCH  88  92
ATOM     92  C   UNL     1      -3.265   5.473  -0.211  1.00  0.00     0.064 C 
BRANCH  92  93
ATOM     93  C   UNL     1      -4.262   6.564  -0.494  1.00  0.00    -0.046 A 
ATOM     94  C   UNL     1      -4.952   7.184   0.561  1.00  0.00     0.004 A 
ATOM     95  C   UNL     1      -4.501   6.981  -1.814  1.00  0.00     0.004 A 
ATOM     96  C   UNL     1      -5.875   8.198   0.299  1.00  0.00     0.000 A 
ATOM     97  C   UNL     1      -5.428   7.993  -2.072  1.00  0.00     0.000 A 
ATOM     98  C   UNL     1      -6.118   8.598  -1.019  1.00  0.00     0.000 A 
ENDBRANCH  92  93
ENDBRANCH  88  92
ENDBRANCH  85  88
ENDBRANCH  82  84
ENDBRANCH  79  82
ENDBRANCH  68  78
ENDBRANCH  65  68
ENDBRANCH  52  64
ENDBRANCH   2  52
TORSDOF 21
