REMARK SMILES N[C@@H](CC1=CC(=O)C(O)=CC1=O)C(=O)O
REMARK SMILES IDX 3 1 2 2 1 3 13 6 14 7 15 8 4 10 5 11 11 12 6 13 10 14 12 15
REMARK SMILES IDX 7 16 8 17 9 18
REMARK H PARENT 1 4 1 5 15 9 9 19
REMARK Flexibility Score: inf
ROOT
ATOM      1  C   UNL     1       1.002  -0.284  -0.797  1.00  0.00     0.070 C 
ENDROOT
BRANCH   1   2
ATOM      2  C   UNL     1       1.818  -0.246   0.507  1.00  0.00     0.166 C 
BRANCH   2   3
ATOM      3  N   UNL     1       1.663   1.049   1.175  1.00  0.00    -0.318 NA
ATOM      4  H   UNL     1       2.188   1.025   2.079  1.00  0.00     0.119 HD
ATOM      5  H   UNL     1       2.089   1.801   0.585  1.00  0.00     0.119 HD
ENDBRANCH   2   3
BRANCH   2   6
ATOM      6  C   UNL     1       3.270  -0.524   0.224  1.00  0.00     0.320 C 
ATOM      7  O   UNL     1       3.834  -1.523   0.745  1.00  0.00    -0.251 OA
BRANCH   6   8
ATOM      8  O   UNL     1       3.994   0.321  -0.613  1.00  0.00    -0.480 OA
ATOM      9  H   UNL     1       4.971   0.144  -0.811  1.00  0.00     0.296 HD
ENDBRANCH   6   8
ENDBRANCH   2   6
ENDBRANCH   1   2
BRANCH   1  10
ATOM     10  C   UNL     1      -0.478  -0.138  -0.528  1.00  0.00     0.006 C 
ATOM     11  C   UNL     1      -1.203  -1.210  -0.168  1.00  0.00     0.063 C 
ATOM     12  C   UNL     1      -1.137   1.191  -0.606  1.00  0.00     0.185 C 
ATOM     13  C   UNL     1      -2.642  -1.081   0.128  1.00  0.00     0.220 C 
ATOM     14  C   UNL     1      -2.576   1.316  -0.308  1.00  0.00     0.102 C 
ATOM     15  O   UNL     1      -0.479   2.218  -0.923  1.00  0.00    -0.289 OA
ATOM     16  O   UNL     1      -3.306  -2.099   0.457  1.00  0.00    -0.286 OA
ATOM     17  C   UNL     1      -3.295   0.244   0.039  1.00  0.00     0.167 C 
BRANCH  17  18
ATOM     18  O   UNL     1      -4.654   0.392   0.314  1.00  0.00    -0.504 OA
ATOM     19  H   UNL     1      -5.232  -0.396   0.581  1.00  0.00     0.293 HD
ENDBRANCH  17  18
ENDBRANCH   1  10
TORSDOF 6
