REMARK SMILES C=C1[C@H](O)CC(=C/C=C2\CCC[C@]3(C)[C@@H]([C@@H](C)CC)CC[C@@H]23)C[C@H]1O
REMARK SMILES IDX 15 1 20 2 21 3 22 4 9 5 10 6 11 7 12 8 13 9 14 10 8 11 16 12
REMARK SMILES IDX 17 13 18 14 19 15 7 16 6 17 5 18 23 19 3 20 24 21 2 22 1 23
REMARK SMILES IDX 4 24 25 26
REMARK H PARENT 4 25 25 27
REMARK Flexibility Score: inf
ROOT
ATOM      1  C   UNL     1      -3.183  -1.125   0.610  1.00  0.00    -0.002 C 
ATOM      2  C   UNL     1      -2.355  -2.157  -0.209  1.00  0.00     0.005 C 
ATOM      3  C   UNL     1      -0.898  -1.684  -0.215  1.00  0.00     0.009 C 
ATOM      4  C   UNL     1      -0.869  -0.577   0.827  1.00  0.00     0.021 C 
ATOM      5  C   UNL     1       0.273   0.420   0.864  1.00  0.00    -0.067 C 
ATOM      6  C   UNL     1       0.146   1.464   1.965  1.00  0.00     0.031 C 
ATOM      7  C   UNL     1      -1.282   2.044   2.088  1.00  0.00     0.005 C 
ATOM      8  C   UNL     1      -2.404   0.988   1.976  1.00  0.00     0.008 C 
ATOM      9  C   UNL     1      -2.237   0.115   0.702  1.00  0.00    -0.023 C 
ATOM     10  C   UNL     1      -2.324   0.985  -0.592  1.00  0.00     0.012 C 
ATOM     11  C   UNL     1       1.418   0.198   0.181  1.00  0.00    -0.001 C 
ENDROOT
BRANCH   1  12
ATOM     12  C   UNL     1      -4.630  -0.937   0.025  1.00  0.00    -0.011 C 
ATOM     13  C   UNL     1      -5.374  -2.293   0.024  1.00  0.00     0.008 C 
BRANCH  12  14
ATOM     14  C   UNL     1      -5.449   0.121   0.811  1.00  0.00     0.000 C 
ATOM     15  C   UNL     1      -6.911   0.240   0.368  1.00  0.00     0.004 C 
ENDBRANCH  12  14
ENDBRANCH   1  12
BRANCH  11  16
ATOM     16  C   UNL     1       2.624   1.060   0.244  1.00  0.00    -0.001 C 
ATOM     17  C   UNL     1       3.848   0.650  -0.146  1.00  0.00    -0.064 C 
ATOM     18  C   UNL     1       4.110  -0.775  -0.594  1.00  0.00     0.067 C 
ATOM     19  C   UNL     1       5.016   1.607  -0.063  1.00  0.00     0.067 C 
ATOM     20  C   UNL     1       5.612  -1.074  -0.773  1.00  0.00     0.146 C 
ATOM     21  C   UNL     1       5.937   1.475  -1.290  1.00  0.00     0.146 C 
ATOM     22  C   UNL     1       6.289   0.026  -1.581  1.00  0.00    -0.020 C 
ATOM     23  C   UNL     1       7.220  -0.252  -2.512  1.00  0.00     0.013 C 
BRANCH  20  24
ATOM     24  O   UNL     1       5.787  -2.350  -1.341  1.00  0.00    -0.388 OA
ATOM     25  H   UNL     1       5.347  -2.347  -2.231  1.00  0.00     0.211 HD
ENDBRANCH  20  24
BRANCH  21  26
ATOM     26  O   UNL     1       7.115   2.208  -1.064  1.00  0.00    -0.388 OA
ATOM     27  H   UNL     1       6.883   3.167  -1.178  1.00  0.00     0.211 HD
ENDBRANCH  21  26
ENDBRANCH  11  16
TORSDOF 5
