REMARK SMILES COc1cc2c(cc1OC)C1CC(=O)C(CC(C)C)CN1CC2
REMARK SMILES IDX 3 1 8 2 7 3 6 4 11 5 12 6 13 7 14 8 15 9 20 10 21 11 22 12
REMARK SMILES IDX 23 13 5 14 4 15 2 16 1 17 9 18 10 19 16 20 17 21 18 22 19 23
REMARK H PARENT
REMARK Flexibility Score: inf
ROOT
ATOM      1  C   UNL     1      -4.251   0.248   0.938  1.00  0.00     0.161 A 
ATOM      2  C   UNL     1      -3.497   1.390   0.643  1.00  0.00     0.161 A 
ATOM      3  C   UNL     1      -2.129   1.260   0.339  1.00  0.00     0.056 A 
ATOM      4  C   UNL     1      -1.514  -0.003   0.288  1.00  0.00    -0.023 A 
ATOM      5  C   UNL     1      -0.035  -0.099  -0.058  1.00  0.00     0.094 C 
ATOM      6  C   UNL     1       0.246   0.391  -1.493  1.00  0.00     0.100 C 
ATOM      7  C   UNL     1       1.728   0.411  -1.733  1.00  0.00     0.139 C 
ATOM      8  O   UNL     1       2.196   1.117  -2.616  1.00  0.00    -0.299 OA
ATOM      9  C   UNL     1       2.641  -0.409  -0.860  1.00  0.00     0.070 C 
ATOM     10  C   UNL     1       1.891  -1.688  -0.420  1.00  0.00     0.096 C 
ATOM     11  N   UNL     1       0.549  -1.451   0.190  1.00  0.00    -0.295 NA
ATOM     12  C   UNL     1      -0.370  -2.543  -0.182  1.00  0.00     0.090 C 
ATOM     13  C   UNL     1      -1.624  -2.493   0.680  1.00  0.00     0.051 C 
ATOM     14  C   UNL     1      -2.274  -1.145   0.594  1.00  0.00    -0.038 A 
ATOM     15  C   UNL     1      -3.630  -1.015   0.928  1.00  0.00     0.054 A 
ENDROOT
BRANCH   1  16
ATOM     16  O   UNL     1      -5.614   0.410   1.240  1.00  0.00    -0.493 OA
ATOM     17  C   UNL     1      -6.485  -0.650   1.622  1.00  0.00     0.278 C 
ENDBRANCH   1  16
BRANCH   2  18
ATOM     18  O   UNL     1      -4.143   2.633   0.664  1.00  0.00    -0.493 OA
ATOM     19  C   UNL     1      -3.520   3.871   0.340  1.00  0.00     0.278 C 
ENDBRANCH   2  18
BRANCH   9  20
ATOM     20  C   UNL     1       3.168   0.416   0.353  1.00  0.00     0.015 C 
BRANCH  20  21
ATOM     21  C   UNL     1       4.708   0.543   0.437  1.00  0.00    -0.017 C 
ATOM     22  C   UNL     1       5.290   1.352  -0.730  1.00  0.00     0.007 C 
ATOM     23  C   UNL     1       5.408  -0.815   0.587  1.00  0.00     0.007 C 
ENDBRANCH  20  21
ENDBRANCH   9  20
TORSDOF 4
