REMARK SMILES CN1Cc2c(N)cccc2C(c2ccccc2)C1
REMARK SMILES IDX 1 1 2 2 18 3 11 4 10 5 4 6 3 7 5 8 7 9 8 10 9 11 12 12 13 13
REMARK SMILES IDX 17 14 14 15 16 16 15 17 6 18
REMARK H PARENT 6 19 6 20
REMARK Flexibility Score: inf
ROOT
ATOM      1  C   UNL     1       1.373  -3.240   1.357  1.00  0.00     0.105 C 
ATOM      2  N   UNL     1       1.165  -1.796   1.163  1.00  0.00    -0.301 NA
ATOM      3  C   UNL     1      -0.246  -1.527   0.848  1.00  0.00     0.097 C 
ATOM      4  C   UNL     1      -0.504  -0.014   0.904  1.00  0.00     0.064 C 
ATOM      5  C   UNL     1       0.576   0.776   0.181  1.00  0.00    -0.033 A 
ATOM      6  C   UNL     1       1.790   0.162  -0.220  1.00  0.00    -0.007 A 
ATOM      7  C   UNL     1       2.026  -1.307   0.070  1.00  0.00     0.122 C 
ATOM      8  C   UNL     1       2.754   0.925  -0.929  1.00  0.00     0.036 A 
ATOM      9  C   UNL     1       2.541   2.296  -1.130  1.00  0.00     0.026 A 
ATOM     10  C   UNL     1       1.382   2.910  -0.662  1.00  0.00     0.002 A 
ATOM     11  C   UNL     1       0.407   2.159  -0.011  1.00  0.00     0.005 A 
ENDROOT
BRANCH   4  12
ATOM     12  C   UNL     1      -1.890   0.286   0.361  1.00  0.00    -0.039 A 
ATOM     13  C   UNL     1      -2.163   0.185  -1.017  1.00  0.00     0.004 A 
ATOM     14  C   UNL     1      -2.931   0.639   1.239  1.00  0.00     0.004 A 
ATOM     15  C   UNL     1      -3.446   0.449  -1.504  1.00  0.00     0.000 A 
ATOM     16  C   UNL     1      -4.213   0.902   0.746  1.00  0.00     0.000 A 
ATOM     17  C   UNL     1      -4.470   0.808  -0.624  1.00  0.00     0.000 A 
ENDBRANCH   4  12
BRANCH   8  18
ATOM     18  N   UNL     1       3.945   0.329  -1.464  1.00  0.00    -0.398 N 
ATOM     19  H   UNL     1       4.089  -0.704  -1.492  1.00  0.00     0.156 HD
ATOM     20  H   UNL     1       4.674   0.922  -1.918  1.00  0.00     0.156 HD
ENDBRANCH   8  18
TORSDOF 2
