REMARK SMILES O=c1[nH]c2cccc(N3CCN(Cc4cccc(-c5ccccc5)c4)CC3)c2o1
REMARK SMILES IDX 13 1 12 2 9 3 10 4 27 5 11 6 26 7 8 8 1 9 2 10 3 11 29 12
REMARK SMILES IDX 4 13 28 15 5 16 6 17 7 18 14 19 25 20 15 21 18 22 16 23
REMARK SMILES IDX 17 24 19 25 20 26 24 27 21 28 23 29 22 30
REMARK H PARENT 3 14
REMARK Flexibility Score: inf
ROOT
ATOM      1  C   UNL     1       0.622  -1.136  -2.067  1.00  0.00     0.120 C 
ENDROOT
BRANCH   1   2
ATOM      2  N   UNL     1      -0.504  -0.549  -1.307  1.00  0.00    -0.296 NA
ATOM      3  N   UNL     1      -2.512   0.503   0.119  1.00  0.00    -0.366 N 
ATOM      4  C   UNL     1      -1.468   1.454  -0.286  1.00  0.00     0.132 C 
ATOM      5  C   UNL     1      -2.118  -0.827   0.601  1.00  0.00     0.132 C 
ATOM      6  C   UNL     1      -0.169   0.720  -0.636  1.00  0.00     0.106 C 
ATOM      7  C   UNL     1      -1.163  -1.514  -0.397  1.00  0.00     0.106 C 
BRANCH   3   8
ATOM      8  C   UNL     1      -3.891   0.914   0.135  1.00  0.00     0.083 A 
ATOM      9  O   UNL     1      -6.318  -2.449  -1.955  1.00  0.00    -0.224 OA
ATOM     10  C   UNL     1      -6.029  -1.379  -1.358  1.00  0.00     0.417 A 
ATOM     11  N   UNL     1      -6.950  -0.447  -1.017  1.00  0.00    -0.287 N 
ATOM     12  O   UNL     1      -4.798  -1.054  -1.005  1.00  0.00    -0.406 OA
ATOM     13  C   UNL     1      -6.210   0.499  -0.419  1.00  0.00     0.089 A 
ATOM     14  H   UNL     1      -7.981  -0.458  -1.186  1.00  0.00     0.173 HD
ATOM     15  C   UNL     1      -4.899   0.114  -0.415  1.00  0.00     0.179 A 
ATOM     16  C   UNL     1      -6.628   1.714   0.116  1.00  0.00     0.030 A 
ATOM     17  C   UNL     1      -5.643   2.552   0.669  1.00  0.00     0.005 A 
ATOM     18  C   UNL     1      -4.284   2.160   0.676  1.00  0.00     0.030 A 
ENDBRANCH   3   8
ENDBRANCH   1   2
BRANCH   1  19
ATOM     19  C   UNL     1       1.819  -1.499  -1.210  1.00  0.00    -0.033 A 
ATOM     20  C   UNL     1       2.790  -0.533  -0.897  1.00  0.00     0.013 A 
ATOM     21  C   UNL     1       1.983  -2.813  -0.742  1.00  0.00     0.005 A 
ATOM     22  C   UNL     1       3.900  -0.860  -0.096  1.00  0.00    -0.018 A 
ATOM     23  C   UNL     1       3.084  -3.147   0.048  1.00  0.00     0.001 A 
ATOM     24  C   UNL     1       4.036  -2.179   0.373  1.00  0.00     0.009 A 
BRANCH  22  25
ATOM     25  C   UNL     1       4.909   0.173   0.250  1.00  0.00    -0.018 A 
ATOM     26  C   UNL     1       6.282  -0.139   0.253  1.00  0.00     0.009 A 
ATOM     27  C   UNL     1       4.508   1.481   0.583  1.00  0.00     0.009 A 
ATOM     28  C   UNL     1       7.229   0.836   0.580  1.00  0.00     0.001 A 
ATOM     29  C   UNL     1       5.459   2.452   0.909  1.00  0.00     0.001 A 
ATOM     30  C   UNL     1       6.818   2.130   0.907  1.00  0.00     0.000 A 
ENDBRANCH  22  25
ENDBRANCH   1  19
TORSDOF 4
