REMARK SMILES O=C(O)CCCN1CCC(OC(c2ccc(Cl)cc2)c2ccccn2)CC1
REMARK SMILES IDX 6 1 5 2 4 3 2 4 1 5 3 6 7 8 8 9 27 10 9 11 26 12 10 13 11 14
REMARK SMILES IDX 12 15 13 16 14 17 19 18 15 19 18 20 16 21 17 22 20 23 21 24
REMARK SMILES IDX 25 25 22 26 24 27 23 28
REMARK H PARENT 3 7
REMARK Flexibility Score: inf
ROOT
ATOM      1  C   UNL     1       3.502  -1.805  -0.998  1.00  0.00     0.085 C 
ENDROOT
BRANCH   1   2
ATOM      2  C   UNL     1       4.532  -2.382   0.004  1.00  0.00     0.027 C 
BRANCH   2   3
ATOM      3  C   UNL     1       5.261  -1.347   0.871  1.00  0.00     0.124 C 
BRANCH   3   4
ATOM      4  C   UNL     1       5.998  -0.334   0.048  1.00  0.00     0.303 C 
ATOM      5  O   UNL     1       5.696   0.888   0.129  1.00  0.00    -0.252 OA
BRANCH   4   6
ATOM      6  O   UNL     1       7.020  -0.743  -0.804  1.00  0.00    -0.481 OA
ATOM      7  H   UNL     1       7.527  -0.070  -1.367  1.00  0.00     0.296 HD
ENDBRANCH   4   6
ENDBRANCH   3   4
ENDBRANCH   2   3
ENDBRANCH   1   2
BRANCH   1   8
ATOM      8  N   UNL     1       2.307  -1.148  -0.416  1.00  0.00    -0.303 NA
ATOM      9  C   UNL     1       2.443   0.295  -0.155  1.00  0.00     0.087 C 
ATOM     10  C   UNL     1       1.657  -1.863   0.701  1.00  0.00     0.087 C 
ATOM     11  C   UNL     1       1.049   0.952  -0.109  1.00  0.00     0.047 C 
ATOM     12  C   UNL     1       0.398  -1.118   1.198  1.00  0.00     0.047 C 
ATOM     13  C   UNL     1      -0.081  -0.059   0.194  1.00  0.00     0.122 C 
BRANCH  13  14
ATOM     14  O   UNL     1      -1.198   0.618   0.749  1.00  0.00    -0.364 OA
BRANCH  14  15
ATOM     15  C   UNL     1      -2.120   1.015  -0.254  1.00  0.00     0.197 C 
BRANCH  15  16
ATOM     16  C   UNL     1      -3.043  -0.138  -0.604  1.00  0.00    -0.013 A 
ATOM     17  C   UNL     1      -3.551  -0.981   0.402  1.00  0.00     0.008 A 
ATOM     18  C   UNL     1      -3.432  -0.353  -1.938  1.00  0.00     0.008 A 
ATOM     19  C   UNL     1      -4.410  -2.034   0.073  1.00  0.00     0.021 A 
ATOM     20  C   UNL     1      -4.292  -1.407  -2.262  1.00  0.00     0.021 A 
ATOM     21  C   UNL     1      -4.779  -2.250  -1.259  1.00  0.00     0.041 A 
ATOM     22  Cl  UNL     1      -5.858  -3.571  -1.668  1.00  0.00    -0.084 Cl
ENDBRANCH  15  16
BRANCH  15  23
ATOM     23  C   UNL     1      -2.887   2.215   0.249  1.00  0.00     0.074 A 
ATOM     24  C   UNL     1      -2.197   3.401   0.553  1.00  0.00     0.027 A 
ATOM     25  N   UNL     1      -4.243   2.170   0.409  1.00  0.00    -0.258 NA
ATOM     26  C   UNL     1      -2.907   4.510   1.016  1.00  0.00     0.004 A 
ATOM     27  C   UNL     1      -4.952   3.241   0.856  1.00  0.00     0.111 A 
ATOM     28  C   UNL     1      -4.294   4.433   1.169  1.00  0.00     0.020 A 
ENDBRANCH  15  23
ENDBRANCH  14  15
ENDBRANCH  13  14
ENDBRANCH   1   8
TORSDOF 9
