REMARK SMILES CC(C)CCC(=O)CC1c2ccccc2C(=O)N1c1ccc2ccc(Cl)nc2n1
REMARK SMILES IDX 6 1 7 2 5 3 4 4 2 5 1 6 3 7 8 8 9 9 18 10 10 11 16 12 15 13
REMARK SMILES IDX 11 14 17 15 14 16 12 17 13 18 19 19 29 20 20 21 28 22 21 23
REMARK SMILES IDX 22 24 27 25 23 26 25 27 24 28 26 29
REMARK H PARENT
REMARK Flexibility Score: inf
ROOT
ATOM      1  C   UNL     1      -1.738   1.108  -1.768  1.00  0.00     0.135 C 
ATOM      2  O   UNL     1      -2.032   1.812  -2.723  1.00  0.00    -0.300 OA
ENDROOT
BRANCH   1   3
ATOM      3  C   UNL     1      -2.832   0.365  -1.041  1.00  0.00     0.076 C 
BRANCH   3   4
ATOM      4  C   UNL     1      -2.640  -1.157  -1.148  1.00  0.00     0.011 C 
BRANCH   4   5
ATOM      5  C   UNL     1      -3.877  -1.958  -0.686  1.00  0.00    -0.017 C 
ATOM      6  C   UNL     1      -4.207  -1.702   0.791  1.00  0.00     0.007 C 
ATOM      7  C   UNL     1      -3.645  -3.461  -0.918  1.00  0.00     0.007 C 
ENDBRANCH   4   5
ENDBRANCH   3   4
ENDBRANCH   1   3
BRANCH   1   8
ATOM      8  C   UNL     1      -0.288   0.981  -1.369  1.00  0.00     0.106 C 
BRANCH   8   9
ATOM      9  C   UNL     1      -0.003   1.493   0.058  1.00  0.00     0.130 C 
ATOM     10  N   UNL     1       1.417   1.270   0.396  1.00  0.00    -0.285 N 
ATOM     11  C   UNL     1      -0.146   2.996   0.151  1.00  0.00    -0.012 A 
ATOM     12  C   UNL     1       2.041   2.543   0.576  1.00  0.00     0.260 C 
ATOM     13  C   UNL     1       1.065   3.591   0.431  1.00  0.00     0.045 A 
ATOM     14  C   UNL     1      -1.309   3.769   0.059  1.00  0.00     0.007 A 
ATOM     15  O   UNL     1       3.256   2.711   0.861  1.00  0.00    -0.269 OA
ATOM     16  C   UNL     1       1.193   4.969   0.605  1.00  0.00     0.014 A 
ATOM     17  C   UNL     1      -1.208   5.161   0.222  1.00  0.00     0.000 A 
ATOM     18  C   UNL     1       0.038   5.760   0.490  1.00  0.00     0.001 A 
BRANCH  10  19
ATOM     19  C   UNL     1       2.067  -0.004   0.570  1.00  0.00     0.138 A 
ATOM     20  N   UNL     1       3.427  -0.079   0.518  1.00  0.00    -0.211 NA
ATOM     21  C   UNL     1       1.322  -1.177   0.788  1.00  0.00     0.048 A 
ATOM     22  C   UNL     1       4.094  -1.254   0.664  1.00  0.00     0.163 A 
ATOM     23  C   UNL     1       1.981  -2.399   0.941  1.00  0.00     0.016 A 
ATOM     24  C   UNL     1       3.378  -2.448   0.877  1.00  0.00     0.020 A 
ATOM     25  N   UNL     1       5.452  -1.279   0.597  1.00  0.00    -0.216 NA
ATOM     26  C   UNL     1       4.084  -3.651   1.017  1.00  0.00     0.015 A 
ATOM     27  C   UNL     1       6.153  -2.438   0.732  1.00  0.00     0.131 A 
ATOM     28  C   UNL     1       5.480  -3.646   0.945  1.00  0.00     0.042 A 
ATOM     29  Cl  UNL     1       7.902  -2.410   0.639  1.00  0.00    -0.062 Cl
ENDBRANCH  10  19
ENDBRANCH   8   9
ENDBRANCH   1   8
TORSDOF 6
