REMARK SMILES CC[C@H](C)[C@H]1NC(=O)[C@@H](NC(=O)[C@@H](CC(C)C)N(C)C(=O)[C@@H]2CCCN2C(=O)C(C)=O)[C@@H](C)OC(=O)[C@H](Cc2ccc(OC)cc2)N(C)C(=O)[C@@H]2CCCN2C(=O)[C@H](CC(C)C)NC(=O)[C@@H](C)C(=O)[C@H](C(C)C)OC(=O)C[C@@H]1O
REMARK SMILES IDX 78 1 77 2 75 3 76 4 74 5 70 6 68 7 69 8 66 9 67 10 64 11
REMARK SMILES IDX 63 12 65 14 58 15 56 16 57 17 55 18 51 19 52 20 53 22 54 23
REMARK SMILES IDX 59 24 60 25 61 26 62 27 71 28 72 29 73 30 79 31 5 33 6 34
REMARK SMILES IDX 7 35 8 37 9 38 10 39 11 40 12 42 13 43 14 44 15 45 16 46
REMARK SMILES IDX 17 47 18 48 19 49 20 50 21 51 22 52 23 53 26 54 24 55 25 56
REMARK SMILES IDX 27 57 28 58 29 59 30 60 31 61 32 62 33 63 34 64 35 65 36 66
REMARK SMILES IDX 37 67 38 68 39 69 40 70 46 71 41 72 45 73 42 74 43 75 44 76
REMARK SMILES IDX 47 77 48 78 49 79 50 80 3 82 4 83 2 84 1 85
REMARK H PARENT 63 13 79 32 6 36 10 41
REMARK Flexibility Score: 50.00
ROOT
ATOM      1  C   UNL     1       0.475  -3.457  -1.145  1.00  0.00     0.148 C 
ENDROOT
BRANCH   1   2
ATOM      2  C   UNL     1      -0.046  -4.864  -0.711  1.00  0.00     0.156 C 
BRANCH   2   3
ATOM      3  C   UNL     1      -1.540  -4.991  -0.667  1.00  0.00     0.309 C 
ATOM      4  O   UNL     1      -2.127  -5.823  -1.409  1.00  0.00    -0.252 OA
BRANCH   3   5
ATOM      5  O   UNL     1      -2.257  -4.204   0.242  1.00  0.00    -0.454 OA
BRANCH   5   6
ATOM      6  C   UNL     1      -3.680  -4.192   0.356  1.00  0.00     0.246 C 
BRANCH   6   7
ATOM      7  C   UNL     1      -4.132  -2.757   0.203  1.00  0.00     0.185 C 
ATOM      8  O   UNL     1      -3.669  -1.904   0.951  1.00  0.00    -0.295 OA
BRANCH   7   9
ATOM      9  C   UNL     1      -5.118  -2.353  -0.876  1.00  0.00     0.146 C 
ATOM     10  C   UNL     1      -4.479  -1.344  -1.838  1.00  0.00     0.026 C 
BRANCH   9  11
ATOM     11  C   UNL     1      -6.387  -1.811  -0.268  1.00  0.00     0.231 C 
ATOM     12  N   UNL     1      -6.346  -0.847   0.788  1.00  0.00    -0.344 N 
ATOM     13  H   UNL     1      -6.624  -1.179   1.739  1.00  0.00     0.164 HD
ATOM     14  O   UNL     1      -7.504  -2.238  -0.671  1.00  0.00    -0.274 OA
BRANCH  12  15
ATOM     15  C   UNL     1      -6.367   0.589   0.498  1.00  0.00     0.171 C 
BRANCH  15  16
ATOM     16  C   UNL     1      -5.617   1.372   1.549  1.00  0.00     0.245 C 
ATOM     17  O   UNL     1      -5.355   0.858   2.669  1.00  0.00    -0.272 OA
BRANCH  16  18
ATOM     18  N   UNL     1      -5.198   2.711   1.277  1.00  0.00    -0.329 N 
ATOM     19  C   UNL     1      -4.070   3.047   0.423  1.00  0.00     0.174 CG0
ATOM     20  C   UNL     1      -4.241   4.540   0.156  1.00  0.00     0.037 C 
ATOM     21  G   UNL     1      -2.774   2.762   1.149  1.00  0.00     0.000 G0
ATOM     22  C   UNL     1      -5.084   5.075   1.310  1.00  0.00     0.024 C 
ATOM     23  C   UNL     1      -5.856   3.875   1.846  1.00  0.00     0.120 C 
ENDBRANCH  16  18
ENDBRANCH  15  16
BRANCH  15  24
ATOM     24  C   UNL     1      -7.811   1.102   0.269  1.00  0.00     0.038 C 
BRANCH  24  25
ATOM     25  C   UNL     1      -8.861   0.739   1.354  1.00  0.00    -0.015 C 
ATOM     26  C   UNL     1     -10.275   0.912   0.783  1.00  0.00     0.007 C 
ATOM     27  C   UNL     1      -8.722   1.596   2.621  1.00  0.00     0.007 C 
ENDBRANCH  24  25
ENDBRANCH  15  24
ENDBRANCH  12  15
ENDBRANCH   9  11
ENDBRANCH   7   9
ENDBRANCH   6   7
BRANCH   6  28
ATOM     28  C   UNL     1      -4.104  -4.770   1.731  1.00  0.00     0.032 C 
ATOM     29  C   UNL     1      -3.446  -6.135   1.979  1.00  0.00     0.012 C 
ATOM     30  C   UNL     1      -5.632  -4.910   1.827  1.00  0.00     0.012 C 
ENDBRANCH   6  28
ENDBRANCH   5   6
ENDBRANCH   3   5
ENDBRANCH   2   3
ENDBRANCH   1   2
BRANCH   1  31
ATOM     31  O   UNL     1      -0.492  -2.452  -0.960  1.00  0.00    -0.390 OA
ATOM     32  H   UNL     1      -0.530  -2.260   0.013  1.00  0.00     0.211 HD
ENDBRANCH   1  31
BRANCH   1  33
ATOM     33  C   UNL     1       1.071  -3.393  -2.590  1.00  0.00     0.114 C 
BRANCH  33  34
ATOM     34  N   UNL     1       2.316  -2.603  -2.572  1.00  0.00    -0.349 N 
ATOM     35  C   UNL     1       2.366  -1.167  -2.499  1.00  0.00     0.246 C 
ATOM     36  H   UNL     1       3.194  -3.084  -2.875  1.00  0.00     0.163 HD
ATOM     37  O   UNL     1       2.731  -0.524  -3.519  1.00  0.00    -0.273 OA
BRANCH  35  38
ATOM     38  C   UNL     1       2.196  -0.448  -1.178  1.00  0.00     0.212 C 
BRANCH  38  39
ATOM     39  N   UNL     1       3.485  -0.377  -0.485  1.00  0.00    -0.339 N 
ATOM     40  C   UNL     1       3.602  -0.527   0.939  1.00  0.00     0.243 C 
ATOM     41  H   UNL     1       4.353  -0.279  -1.055  1.00  0.00     0.164 HD
ATOM     42  O   UNL     1       2.570  -0.493   1.666  1.00  0.00    -0.273 OA
BRANCH  40  43
ATOM     43  C   UNL     1       4.951  -0.782   1.588  1.00  0.00     0.174 C 
BRANCH  43  44
ATOM     44  C   UNL     1       5.220  -2.325   1.574  1.00  0.00     0.038 C 
BRANCH  44  45
ATOM     45  C   UNL     1       5.178  -3.055   0.206  1.00  0.00    -0.015 C 
ATOM     46  C   UNL     1       5.186  -4.575   0.426  1.00  0.00     0.007 C 
ATOM     47  C   UNL     1       6.346  -2.666  -0.700  1.00  0.00     0.007 C 
ENDBRANCH  44  45
ENDBRANCH  43  44
BRANCH  43  48
ATOM     48  N   UNL     1       6.032   0.097   1.042  1.00  0.00    -0.332 N 
ATOM     49  C   UNL     1       5.696   1.492   0.683  1.00  0.00     0.147 C 
BRANCH  48  50
ATOM     50  C   UNL     1       7.442  -0.168   1.285  1.00  0.00     0.245 C 
ATOM     51  O   UNL     1       7.785  -1.034   2.132  1.00  0.00    -0.272 OA
BRANCH  50  52
ATOM     52  C   UNL     1       8.539   0.655   0.613  1.00  0.00     0.175 C 
ATOM     53  C   UNL     1       8.566   0.453  -0.904  1.00  0.00     0.037 C 
ATOM     54  N   UNL     1       9.865   0.239   1.068  1.00  0.00    -0.324 N 
ATOM     55  C   UNL     1       9.676  -0.558  -1.164  1.00  0.00     0.024 C 
ATOM     56  C   UNL     1      10.622  -0.430   0.021  1.00  0.00     0.121 C 
BRANCH  54  57
ATOM     57  C   UNL     1      10.423   0.449   2.387  1.00  0.00     0.290 C 
ATOM     58  O   UNL     1      11.569  -0.013   2.642  1.00  0.00    -0.266 OA
BRANCH  57  59
ATOM     59  C   UNL     1       9.702   1.169   3.468  1.00  0.00     0.217 C 
ATOM     60  C   UNL     1      10.189   1.080   4.881  1.00  0.00     0.099 C 
ATOM     61  O   UNL     1       8.687   1.870   3.219  1.00  0.00    -0.289 OA
ENDBRANCH  57  59
ENDBRANCH  54  57
ENDBRANCH  50  52
ENDBRANCH  48  50
ENDBRANCH  43  48
ENDBRANCH  40  43
ENDBRANCH  38  39
BRANCH  38  62
ATOM     62  C   UNL     1       1.552   0.954  -1.295  1.00  0.00     0.205 C 
ATOM     63  C   UNL     1       2.452   1.978  -2.019  1.00  0.00     0.056 C 
BRANCH  62  64
ATOM     64  O   UNL     1       0.295   0.816  -1.966  1.00  0.00    -0.458 OA
BRANCH  64  65
ATOM     65  C   UNL     1      -0.898   1.550  -1.804  1.00  0.00     0.329 C 
ATOM     66  O   UNL     1      -1.874   1.199  -2.523  1.00  0.00    -0.250 OA
BRANCH  65  67
ATOM     67  C   UNL     1      -1.158   2.671  -0.802  1.00  0.00     0.199 C 
BRANCH  67  68
ATOM     68  C   UNL     1      -0.000   3.681  -0.619  1.00  0.00     0.072 C 
BRANCH  68  69
ATOM     69  C   UNL     1      -0.498   5.023  -0.140  1.00  0.00    -0.045 A 
ATOM     70  C   UNL     1      -0.579   5.305   1.233  1.00  0.00     0.007 A 
ATOM     71  C   UNL     1      -0.953   5.976  -1.064  1.00  0.00     0.007 A 
ATOM     72  C   UNL     1      -1.137   6.508   1.673  1.00  0.00     0.046 A 
ATOM     73  C   UNL     1      -1.514   7.179  -0.624  1.00  0.00     0.046 A 
ATOM     74  C   UNL     1      -1.626   7.445   0.755  1.00  0.00     0.118 A 
BRANCH  74  75
ATOM     75  O   UNL     1      -2.231   8.608   1.249  1.00  0.00    -0.497 OA
ATOM     76  C   UNL     1      -2.827   9.612   0.430  1.00  0.00     0.278 C 
ENDBRANCH  74  75
ENDBRANCH  68  69
ENDBRANCH  67  68
BRANCH  67  77
ATOM     77  N   UNL     1      -1.653   2.140   0.486  1.00  0.00    -0.330 N 
ATOM     78  C   UNL     1      -0.862   1.171   1.255  1.00  0.00     0.147 C 
BRANCH  77  79
ATOM     79  C   UNL     1      -2.774   2.762   1.149  1.00  0.00     0.245 CG0
ATOM     80  O   UNL     1      -2.684   3.056   2.374  1.00  0.00    -0.272 OA
ATOM     81  G   UNL     1      -4.070   3.047   0.423  1.00  0.00     0.000 G0
ENDBRANCH  77  79
ENDBRANCH  67  77
ENDBRANCH  65  67
ENDBRANCH  64  65
ENDBRANCH  62  64
ENDBRANCH  38  62
ENDBRANCH  35  38
ENDBRANCH  33  34
BRANCH  33  82
ATOM     82  C   UNL     1       0.111  -2.860  -3.711  1.00  0.00     0.011 C 
ATOM     83  C   UNL     1       0.811  -2.865  -5.087  1.00  0.00     0.010 C 
BRANCH  82  84
ATOM     84  C   UNL     1      -1.251  -3.594  -3.815  1.00  0.00     0.002 C 
ATOM     85  C   UNL     1      -1.158  -5.056  -4.267  1.00  0.00     0.004 C 
ENDBRANCH  82  84
ENDBRANCH  33  82
ENDBRANCH   1  33
TORSDOF 18
