REMARK SMILES C[C@]12C[C@H](O)[C@H]3[C@@H](CCC4=CC(=O)CC[C@@]43C)[C@@H]1CC[C@@H]2C(=O)CO
REMARK SMILES IDX 22 1 23 2 21 3 20 4 2 5 19 6 18 7 3 8 1 9 7 10 4 11 8 12
REMARK SMILES IDX 6 13 9 14 16 15 10 16 15 17 17 18 11 19 14 20 12 21 13 22
REMARK SMILES IDX 5 23 24 25 25 26
REMARK H PARENT 5 24 25 27
REMARK Flexibility Score: inf
ROOT
ATOM      1  C   UNL     1       4.103  -0.745   1.330  1.00  0.00     0.161 C 
ATOM      2  O   UNL     1       3.944  -1.932   1.577  1.00  0.00    -0.297 OA
ENDROOT
BRANCH   1   3
ATOM      3  C   UNL     1       2.887   0.174   1.366  1.00  0.00     0.065 C 
ATOM      4  C   UNL     1       3.147   1.670   1.045  1.00  0.00     0.012 C 
ATOM      5  C   UNL     1       1.739  -0.221   0.403  1.00  0.00    -0.017 C 
ATOM      6  C   UNL     1       1.871   2.199   0.364  1.00  0.00     0.005 C 
ATOM      7  C   UNL     1       0.880   1.049   0.480  1.00  0.00    -0.001 C 
ATOM      8  C   UNL     1       0.871  -1.411   0.884  1.00  0.00     0.040 C 
ATOM      9  C   UNL     1       2.325  -0.501  -1.020  1.00  0.00     0.012 C 
ATOM     10  C   UNL     1      -0.344   1.011  -0.459  1.00  0.00    -0.001 C 
ATOM     11  C   UNL     1      -0.454  -1.553   0.080  1.00  0.00     0.119 C 
ATOM     12  C   UNL     1      -1.127   2.347  -0.384  1.00  0.00     0.009 C 
ATOM     13  C   UNL     1      -1.249  -0.206  -0.029  1.00  0.00     0.031 C 
ATOM     14  C   UNL     1      -2.434   2.294  -1.182  1.00  0.00     0.032 C 
ATOM     15  C   UNL     1      -2.599  -0.267  -0.851  1.00  0.00    -0.005 C 
ATOM     16  C   UNL     1      -3.240   1.117  -0.698  1.00  0.00    -0.060 C 
ATOM     17  C   UNL     1      -3.573  -1.382  -0.345  1.00  0.00     0.020 C 
ATOM     18  C   UNL     1      -2.369  -0.547  -2.362  1.00  0.00     0.016 C 
ATOM     19  C   UNL     1      -4.272   1.344   0.138  1.00  0.00     0.047 C 
ATOM     20  C   UNL     1      -4.202  -1.070   1.011  1.00  0.00     0.081 C 
ATOM     21  C   UNL     1      -4.854   0.274   0.960  1.00  0.00     0.155 C 
ATOM     22  O   UNL     1      -5.858   0.514   1.680  1.00  0.00    -0.295 OA
BRANCH  11  23
ATOM     23  O   UNL     1      -0.197  -2.093  -1.189  1.00  0.00    -0.393 OA
ATOM     24  H   UNL     1       0.011  -3.055  -1.060  1.00  0.00     0.210 HD
ENDBRANCH  11  23
ENDBRANCH   1   3
BRANCH   1  25
ATOM     25  C   UNL     1       5.497  -0.263   1.020  1.00  0.00     0.231 C 
BRANCH  25  26
ATOM     26  O   UNL     1       5.647  -0.054  -0.357  1.00  0.00    -0.389 OA
ATOM     27  H   UNL     1       5.690  -0.953  -0.777  1.00  0.00     0.211 HD
ENDBRANCH  25  26
ENDBRANCH   1  25
TORSDOF 4
