REMARK SMILES C/C=C1\[C@H]2C=C(C)C[C@]1(N)c1ccc(=O)[nH]c1C2
REMARK SMILES IDX 4 1 18 2 17 3 11 4 12 5 13 6 14 7 15 8 16 9 9 10 8 11 6 12
REMARK SMILES IDX 7 13 5 14 3 15 2 16 1 17 10 19
REMARK H PARENT 16 18 10 20 10 21
REMARK Flexibility Score: inf
ROOT
ATOM      1  C   UNL     1      -0.803   0.960   1.058  1.00  0.00     0.045 C 
ATOM      2  C   UNL     1       0.648   0.994   1.559  1.00  0.00     0.066 C 
ATOM      3  C   UNL     1       1.564   0.077   0.772  1.00  0.00     0.024 A 
ATOM      4  C   UNL     1       1.214  -0.381  -0.528  1.00  0.00    -0.004 A 
ATOM      5  C   UNL     1       2.115  -1.229  -1.195  1.00  0.00     0.013 A 
ATOM      6  C   UNL     1       3.336  -1.562  -0.613  1.00  0.00     0.072 A 
ATOM      7  C   UNL     1       3.655  -1.060   0.648  1.00  0.00     0.248 A 
ATOM      8  O   UNL     1       4.760  -1.352   1.178  1.00  0.00    -0.270 OA
ATOM      9  N   UNL     1       2.774  -0.258   1.307  1.00  0.00    -0.326 N 
ATOM     10  C   UNL     1      -0.155  -0.072  -1.149  1.00  0.00     0.068 C 
ATOM     11  C   UNL     1      -1.100  -1.272  -0.892  1.00  0.00     0.062 C 
ATOM     12  C   UNL     1      -1.513  -1.409   0.566  1.00  0.00    -0.074 C 
ATOM     13  C   UNL     1      -2.122  -2.702   1.034  1.00  0.00     0.039 C 
ATOM     14  C   UNL     1      -1.447  -0.364   1.422  1.00  0.00    -0.020 C 
ATOM     15  C   UNL     1      -0.771   1.136  -0.444  1.00  0.00    -0.043 C 
ATOM     16  C   UNL     1      -1.201   2.258  -1.073  1.00  0.00    -0.028 C 
ATOM     17  C   UNL     1      -1.767   3.447  -0.352  1.00  0.00     0.035 C 
ATOM     18  H   UNL     1       3.036   0.107   2.251  1.00  0.00     0.169 HD
ENDROOT
BRANCH  10  19
ATOM     19  N   UNL     1      -0.000   0.124  -2.599  1.00  0.00    -0.318 NA
ATOM     20  H   UNL     1       0.610   0.955  -2.781  1.00  0.00     0.120 HD
ATOM     21  H   UNL     1      -0.931   0.284  -3.050  1.00  0.00     0.120 HD
ENDBRANCH  10  19
TORSDOF 1
