REMARK SMILES O=C1OC(c2ccc(O)cc2)(c2ccc(O)cc2)c2ccccc21
REMARK SMILES IDX 4 1 3 2 2 3 1 4 24 5 23 6 22 7 21 8 20 9 19 10 5 11 8 12
REMARK SMILES IDX 7 13 10 14 6 15 11 16 9 17 12 19 13 20 18 21 14 22 17 23
REMARK SMILES IDX 15 24 16 25
REMARK H PARENT 9 18 16 26
REMARK Flexibility Score: inf
ROOT
ATOM      1  C   UNL     1      -0.225  -0.017  -0.426  1.00  0.00     0.188 C 
ATOM      2  O   UNL     1      -0.549  -0.104  -1.825  1.00  0.00    -0.441 OA
ATOM      3  C   UNL     1      -1.817  -0.638  -2.004  1.00  0.00     0.340 C 
ATOM      4  O   UNL     1      -2.357  -0.825  -3.125  1.00  0.00    -0.246 OA
ATOM      5  C   UNL     1      -2.396  -0.947  -0.725  1.00  0.00     0.068 A 
ATOM      6  C   UNL     1      -3.625  -1.516  -0.396  1.00  0.00     0.016 A 
ATOM      7  C   UNL     1      -3.911  -1.726   0.963  1.00  0.00     0.001 A 
ATOM      8  C   UNL     1      -2.970  -1.372   1.951  1.00  0.00     0.001 A 
ATOM      9  C   UNL     1      -1.737  -0.804   1.588  1.00  0.00     0.009 A 
ATOM     10  C   UNL     1      -1.470  -0.591   0.229  1.00  0.00     0.019 A 
ENDROOT
BRANCH   1  11
ATOM     11  C   UNL     1       0.969  -0.907  -0.087  1.00  0.00     0.005 A 
ATOM     12  C   UNL     1       3.111  -2.607   0.604  1.00  0.00     0.115 A 
ATOM     13  C   UNL     1       2.726  -1.578   1.466  1.00  0.00     0.046 A 
ATOM     14  C   UNL     1       2.420  -2.799  -0.598  1.00  0.00     0.046 A 
ATOM     15  C   UNL     1       1.659  -0.740   1.131  1.00  0.00     0.012 A 
ATOM     16  C   UNL     1       1.353  -1.963  -0.939  1.00  0.00     0.012 A 
BRANCH  12  17
ATOM     17  O   UNL     1       4.177  -3.434   0.951  1.00  0.00    -0.508 OA
ATOM     18  H   UNL     1       4.479  -4.189   0.348  1.00  0.00     0.293 HD
ENDBRANCH  12  17
ENDBRANCH   1  11
BRANCH   1  19
ATOM     19  C   UNL     1       0.038   1.455  -0.104  1.00  0.00     0.005 A 
ATOM     20  C   UNL     1      -0.901   2.267   0.570  1.00  0.00     0.012 A 
ATOM     21  C   UNL     1       1.223   2.055  -0.576  1.00  0.00     0.012 A 
ATOM     22  C   UNL     1      -0.632   3.618   0.809  1.00  0.00     0.046 A 
ATOM     23  C   UNL     1       1.487   3.406  -0.334  1.00  0.00     0.046 A 
ATOM     24  C   UNL     1       0.561   4.190   0.363  1.00  0.00     0.115 A 
BRANCH  24  25
ATOM     25  O   UNL     1       0.814   5.537   0.611  1.00  0.00    -0.508 OA
ATOM     26  H   UNL     1       1.670   5.981   0.299  1.00  0.00     0.293 HD
ENDBRANCH  24  25
ENDBRANCH   1  19
TORSDOF 4
