REMARK SMILES CC(/C=C/C(=O)NO)=C\[C@@H](C)C(=O)c1ccc(N(C)C)cc1
REMARK SMILES IDX 9 1 2 2 1 3 10 4 11 5 12 6 13 7 14 8 15 9 22 10 16 11 21 12
REMARK SMILES IDX 17 13 18 14 19 15 20 16 3 17 4 18 5 19 6 20 7 21 8 23
REMARK H PARENT 7 22 8 24
REMARK Flexibility Score: inf
ROOT
ATOM      1  C   UNL     1       2.005   0.043   1.392  1.00  0.00    -0.012 C 
ATOM      2  C   UNL     1       3.070   0.367   0.624  1.00  0.00    -0.054 C 
ATOM      3  C   UNL     1       2.962   1.312  -0.555  1.00  0.00     0.044 C 
ENDROOT
BRANCH   1   4
ATOM      4  C   UNL     1       0.549   0.425   1.162  1.00  0.00     0.081 C 
ATOM      5  C   UNL     1       0.335   1.945   1.072  1.00  0.00     0.021 C 
BRANCH   4   6
ATOM      6  C   UNL     1      -0.081  -0.318  -0.007  1.00  0.00     0.169 C 
ATOM      7  O   UNL     1       0.660  -0.997  -0.782  1.00  0.00    -0.294 OA
BRANCH   6   8
ATOM      8  C   UNL     1      -1.548  -0.282  -0.277  1.00  0.00     0.018 A 
ATOM      9  C   UNL     1      -2.479   0.071   0.717  1.00  0.00     0.014 A 
ATOM     10  C   UNL     1      -2.030  -0.640  -1.550  1.00  0.00     0.014 A 
ATOM     11  C   UNL     1      -3.850   0.065   0.443  1.00  0.00     0.026 A 
ATOM     12  C   UNL     1      -3.401  -0.644  -1.825  1.00  0.00     0.026 A 
ATOM     13  C   UNL     1      -4.337  -0.298  -0.829  1.00  0.00     0.036 A 
BRANCH  13  14
ATOM     14  N   UNL     1      -5.763  -0.326  -1.106  1.00  0.00    -0.378 N 
ATOM     15  C   UNL     1      -6.293  -1.099  -2.241  1.00  0.00     0.143 C 
ATOM     16  C   UNL     1      -6.699   0.442  -0.273  1.00  0.00     0.143 C 
ENDBRANCH  13  14
ENDBRANCH   6   8
ENDBRANCH   4   6
ENDBRANCH   1   4
BRANCH   2  17
ATOM     17  C   UNL     1       4.403  -0.108   1.078  1.00  0.00     0.009 C 
ATOM     18  C   UNL     1       5.393  -0.440   0.237  1.00  0.00     0.073 C 
BRANCH  18  19
ATOM     19  C   UNL     1       6.701  -0.934   0.718  1.00  0.00     0.267 C 
ATOM     20  O   UNL     1       6.913  -1.101   1.952  1.00  0.00    -0.268 OA
ATOM     21  N   UNL     1       7.740  -1.227  -0.221  1.00  0.00    -0.234 N 
ATOM     22  H   UNL     1       7.578  -1.090  -1.246  1.00  0.00     0.199 HD
BRANCH  21  23
ATOM     23  O   UNL     1       8.939  -1.704   0.201  1.00  0.00    -0.288 OA
ATOM     24  H   UNL     1       9.506  -0.898   0.323  1.00  0.00     0.246 HD
ENDBRANCH  21  23
ENDBRANCH  18  19
ENDBRANCH   2  17
TORSDOF 7
