REMARK SMILES O=C(C[C@H]1NCCC[C@@H]1O)Cn1cnc2cc(Br)c(Cl)cc2c1=O
REMARK SMILES IDX 3 1 4 2 9 3 8 4 7 5 5 6 6 7 10 9 2 11 1 12 11 13 12 14 13 15
REMARK SMILES IDX 23 16 14 17 22 18 24 19 15 20 21 21 16 22 19 23 17 24 20 25
REMARK SMILES IDX 18 26
REMARK H PARENT 5 8 10 10
REMARK Flexibility Score: inf
ROOT
ATOM      1  C   UNL     1      -1.255  -0.122   0.481  1.00  0.00     0.099 C 
ENDROOT
BRANCH   1   2
ATOM      2  C   UNL     1      -2.654   0.488   0.267  1.00  0.00     0.089 C 
ATOM      3  C   UNL     1      -3.755  -0.602   0.326  1.00  0.00     0.131 C 
ATOM      4  C   UNL     1      -5.131   0.025   0.067  1.00  0.00     0.035 C 
ATOM      5  C   UNL     1      -5.132   0.822  -1.239  1.00  0.00     0.018 C 
ATOM      6  N   UNL     1      -2.693   1.198  -1.026  1.00  0.00    -0.311 NA
ATOM      7  C   UNL     1      -3.993   1.848  -1.241  1.00  0.00     0.081 C 
ATOM      8  H   UNL     1      -2.527   0.515  -1.805  1.00  0.00     0.123 HD
BRANCH   3   9
ATOM      9  O   UNL     1      -3.773  -1.209   1.593  1.00  0.00    -0.391 OA
ATOM     10  H   UNL     1      -3.213  -2.027   1.535  1.00  0.00     0.211 HD
ENDBRANCH   3   9
ENDBRANCH   1   2
BRANCH   1  11
ATOM     11  C   UNL     1      -0.184   0.938   0.449  1.00  0.00     0.154 C 
ATOM     12  O   UNL     1      -0.129   1.764   1.347  1.00  0.00    -0.298 OA
BRANCH  11  13
ATOM     13  C   UNL     1       0.828   0.990  -0.663  1.00  0.00     0.202 C 
BRANCH  13  14
ATOM     14  N   UNL     1       2.165   0.649  -0.150  1.00  0.00    -0.291 N 
ATOM     15  C   UNL     1       3.008   1.656   0.230  1.00  0.00     0.203 A 
ATOM     16  C   UNL     1       2.550  -0.661  -0.006  1.00  0.00     0.261 A 
ATOM     17  N   UNL     1       4.237   1.377   0.731  1.00  0.00    -0.238 NA
ATOM     18  C   UNL     1       3.822  -0.967   0.510  1.00  0.00     0.067 A 
ATOM     19  O   UNL     1       1.764  -1.593  -0.335  1.00  0.00    -0.269 OA
ATOM     20  C   UNL     1       4.664   0.099   0.877  1.00  0.00     0.079 A 
ATOM     21  C   UNL     1       4.271  -2.290   0.672  1.00  0.00     0.037 A 
ATOM     22  C   UNL     1       5.937  -0.158   1.396  1.00  0.00     0.046 A 
ATOM     23  C   UNL     1       5.546  -2.545   1.191  1.00  0.00     0.056 A 
ATOM     24  C   UNL     1       6.383  -1.475   1.555  1.00  0.00     0.038 A 
ATOM     25  Cl  UNL     1       6.068  -4.214   1.376  1.00  0.00    -0.083 Cl
ATOM     26  Br  UNL     1       8.135  -1.773   2.270  1.00  0.00    -0.049 Br
ENDBRANCH  13  14
ENDBRANCH  11  13
ENDBRANCH   1  11
TORSDOF 5
