REMARK SMILES C[C@H](CCC(=O)NCCS(=O)(=O)O)[C@H]1CC[C@H]2[C@@H]3[C@H](O)C[C@@H]4C[C@H](O)CC[C@]4(C)[C@H]3C[C@H](O)[C@]12C
REMARK SMILES IDX 5 1 6 2 7 3 4 5 3 6 2 7 1 8 14 9 15 10 34 11 16 12 17 13
REMARK SMILES IDX 32 14 35 15 18 16 31 17 19 18 30 19 21 20 28 21 22 22 27 23
REMARK SMILES IDX 29 24 23 25 26 26 24 27 33 28 20 30 25 32 8 34 9 35 10 36
REMARK SMILES IDX 11 37 12 38 13 39
REMARK H PARENT 7 4 33 29 20 31 25 33 13 40
REMARK Flexibility Score: inf
ROOT
ATOM      1  C   UNL     1       6.222  -0.723  -0.026  1.00  0.00     0.220 C 
ATOM      2  O   UNL     1       6.583  -1.874  -0.397  1.00  0.00    -0.275 OA
ATOM      3  N   UNL     1       6.953   0.439  -0.440  1.00  0.00    -0.355 N 
ATOM      4  H   UNL     1       6.560   1.382  -0.219  1.00  0.00     0.163 HD
ENDROOT
BRANCH   1   5
ATOM      5  C   UNL     1       4.986  -0.573   0.809  1.00  0.00     0.100 C 
BRANCH   5   6
ATOM      6  C   UNL     1       3.792  -0.164  -0.070  1.00  0.00     0.013 C 
BRANCH   6   7
ATOM      7  C   UNL     1       2.455  -0.079   0.723  1.00  0.00    -0.010 C 
ATOM      8  C   UNL     1       2.428   1.231   1.535  1.00  0.00     0.008 C 
BRANCH   7   9
ATOM      9  C   UNL     1       1.224  -0.183  -0.248  1.00  0.00     0.001 C 
ATOM     10  C   UNL     1       1.216  -1.514  -1.053  1.00  0.00     0.005 C 
ATOM     11  C   UNL     1      -0.217  -0.121   0.361  1.00  0.00    -0.000 C 
ATOM     12  C   UNL     1      -0.249  -1.908  -1.278  1.00  0.00     0.005 C 
ATOM     13  C   UNL     1      -1.034  -0.694  -0.811  1.00  0.00     0.004 C 
ATOM     14  C   UNL     1      -0.781   1.302   0.657  1.00  0.00     0.121 C 
ATOM     15  C   UNL     1      -0.295  -1.019   1.640  1.00  0.00     0.015 C 
ATOM     16  C   UNL     1      -2.544  -0.884  -0.516  1.00  0.00     0.025 C 
ATOM     17  C   UNL     1      -2.288   1.228   1.009  1.00  0.00     0.037 C 
ATOM     18  C   UNL     1      -3.312  -1.434  -1.768  1.00  0.00     0.118 C 
ATOM     19  C   UNL     1      -3.167   0.467  -0.039  1.00  0.00     0.004 C 
ATOM     20  C   UNL     1      -4.813  -1.068  -1.769  1.00  0.00     0.036 C 
ATOM     21  C   UNL     1      -4.692   0.301   0.404  1.00  0.00    -0.026 C 
ATOM     22  C   UNL     1      -5.358  -0.919  -0.342  1.00  0.00     0.000 C 
ATOM     23  C   UNL     1      -5.436   1.630   0.059  1.00  0.00     0.010 C 
ATOM     24  C   UNL     1      -4.812   0.032   1.932  1.00  0.00     0.012 C 
ATOM     25  C   UNL     1      -6.910  -0.917  -0.312  1.00  0.00     0.036 C 
ATOM     26  C   UNL     1      -6.959   1.546   0.209  1.00  0.00     0.032 C 
ATOM     27  C   UNL     1      -7.544   0.436  -0.665  1.00  0.00     0.114 C 
BRANCH  14  28
ATOM     28  O   UNL     1      -0.588   2.159  -0.442  1.00  0.00    -0.393 OA
ATOM     29  H   UNL     1      -0.712   3.087  -0.113  1.00  0.00     0.210 HD
ENDBRANCH  14  28
BRANCH  18  30
ATOM     30  O   UNL     1      -2.741  -0.965  -2.965  1.00  0.00    -0.393 OA
ATOM     31  H   UNL     1      -3.042  -1.577  -3.687  1.00  0.00     0.210 HD
ENDBRANCH  18  30
BRANCH  27  32
ATOM     32  O   UNL     1      -7.354   0.744  -2.023  1.00  0.00    -0.393 OA
ATOM     33  H   UNL     1      -7.950   0.141  -2.539  1.00  0.00     0.210 HD
ENDBRANCH  27  32
ENDBRANCH   7   9
ENDBRANCH   6   7
ENDBRANCH   5   6
ENDBRANCH   1   5
BRANCH   3  34
ATOM     34  C   UNL     1       8.157   0.368  -1.269  1.00  0.00     0.134 C 
BRANCH  34  35
ATOM     35  C   UNL     1       9.259   1.265  -0.700  1.00  0.00     0.188 C 
BRANCH  35  36
ATOM     36  S   UNL     1       9.798   0.710   0.912  1.00  0.00     0.266 S 
ATOM     37  O   UNL     1       8.724   0.984   1.927  1.00  0.00    -0.200 OA
ATOM     38  O   UNL     1      11.044   1.452   1.306  1.00  0.00    -0.200 OA
BRANCH  36  39
ATOM     39  O   UNL     1      10.117  -0.941   0.880  1.00  0.00    -0.285 OA
ATOM     40  H   UNL     1      10.894  -1.039   0.272  1.00  0.00     0.234 HD
ENDBRANCH  36  39
ENDBRANCH  35  36
ENDBRANCH  34  35
ENDBRANCH   3  34
TORSDOF 11
