REMARK SMILES O=C([C@@H](O)CO)N1CC=C(c2c(F)cc(N3C[C@H](COc4ccon4)OC3=O)cc2F)CC1
REMARK SMILES IDX 7 1 33 2 32 3 10 4 9 5 8 6 2 7 1 8 3 9 5 10 6 11 4 13 11 15
REMARK SMILES IDX 12 16 30 17 13 18 14 19 29 20 31 21 15 22 16 23 17 24 27 25
REMARK SMILES IDX 18 26 26 27 28 28 19 29 20 30 21 31 25 32 22 33 24 34 23 35
REMARK H PARENT 6 12 4 14
REMARK Flexibility Score: inf
ROOT
ATOM      1  N   UNL     1      -5.102  -0.411  -0.809  1.00  0.00    -0.336 N 
ATOM      2  C   UNL     1      -4.239  -1.076  -1.799  1.00  0.00     0.124 C 
ATOM      3  C   UNL     1      -2.842  -0.465  -1.777  1.00  0.00     0.057 C 
ATOM      4  C   UNL     1      -2.280  -0.509  -0.383  1.00  0.00    -0.035 C 
ATOM      5  C   UNL     1      -3.089  -0.332   0.671  1.00  0.00    -0.001 C 
ATOM      6  C   UNL     1      -4.568  -0.074   0.527  1.00  0.00     0.147 C 
ENDROOT
BRANCH   1   7
ATOM      7  C   UNL     1      -6.513  -0.238  -1.094  1.00  0.00     0.254 C 
ATOM      8  O   UNL     1      -6.980  -0.644  -2.196  1.00  0.00    -0.272 OA
BRANCH   7   9
ATOM      9  C   UNL     1      -7.439   0.468  -0.116  1.00  0.00     0.228 C 
BRANCH   9  10
ATOM     10  C   UNL     1      -8.937   0.242  -0.413  1.00  0.00     0.198 C 
BRANCH  10  11
ATOM     11  O   UNL     1      -9.309   0.778  -1.656  1.00  0.00    -0.393 OA
ATOM     12  H   UNL     1      -9.459   1.751  -1.518  1.00  0.00     0.210 HD
ENDBRANCH  10  11
ENDBRANCH   9  10
BRANCH   9  13
ATOM     13  O   UNL     1      -7.145   1.842  -0.055  1.00  0.00    -0.381 OA
ATOM     14  H   UNL     1      -7.191   2.202  -0.978  1.00  0.00     0.211 HD
ENDBRANCH   9  13
ENDBRANCH   7   9
ENDBRANCH   1   7
BRANCH   4  15
ATOM     15  C   UNL     1      -0.825  -0.691  -0.185  1.00  0.00     0.049 A 
ATOM     16  C   UNL     1       0.089   0.210  -0.762  1.00  0.00     0.135 A 
ATOM     17  C   UNL     1      -0.340  -1.773   0.570  1.00  0.00     0.135 A 
ATOM     18  F   UNL     1      -0.348   1.265  -1.495  1.00  0.00    -0.206 F 
ATOM     19  C   UNL     1       1.463   0.041  -0.565  1.00  0.00     0.066 A 
ATOM     20  C   UNL     1       1.036  -1.952   0.740  1.00  0.00     0.066 A 
ATOM     21  F   UNL     1      -1.198  -2.672   1.114  1.00  0.00    -0.206 F 
ATOM     22  C   UNL     1       1.945  -1.043   0.181  1.00  0.00     0.053 A 
BRANCH  22  23
ATOM     23  N   UNL     1       3.355  -1.207   0.388  1.00  0.00    -0.274 N 
ATOM     24  C   UNL     1       4.277  -0.166   0.828  1.00  0.00     0.178 C 
ATOM     25  C   UNL     1       4.090  -2.414   0.306  1.00  0.00     0.414 C 
ATOM     26  C   UNL     1       5.609  -0.915   1.130  1.00  0.00     0.236 C 
ATOM     27  O   UNL     1       5.403  -2.255   0.685  1.00  0.00    -0.440 OA
ATOM     28  O   UNL     1       3.614  -3.501  -0.115  1.00  0.00    -0.224 OA
BRANCH  26  29
ATOM     29  C   UNL     1       6.814  -0.293   0.424  1.00  0.00     0.278 C 
BRANCH  29  30
ATOM     30  O   UNL     1       7.072   0.993   0.982  1.00  0.00    -0.471 OA
BRANCH  30  31
ATOM     31  C   UNL     1       8.161   1.774   0.597  1.00  0.00     0.254 A 
ATOM     32  N   UNL     1       9.020   1.463  -0.393  1.00  0.00    -0.041 NA
ATOM     33  C   UNL     1       8.515   2.969   1.177  1.00  0.00     0.113 A 
ATOM     34  O   UNL     1       9.891   2.430  -0.437  1.00  0.00    -0.361 OA
ATOM     35  C   UNL     1       9.638   3.346   0.473  1.00  0.00     0.235 A 
ENDBRANCH  30  31
ENDBRANCH  29  30
ENDBRANCH  26  29
ENDBRANCH  22  23
ENDBRANCH   4  15
TORSDOF 10
