REMARK SMILES O=C(O)CC(O)(CC(=O)O)C(=O)O
REMARK SMILES IDX 5 1 4 2 2 3 1 4 3 5 6 7 7 9 8 10 9 11 10 12 11 14 12 15
REMARK SMILES IDX 13 16
REMARK H PARENT 3 6 6 8 10 13 13 17
REMARK Flexibility Score: inf
ROOT
ATOM      1  C   UNL     1      -0.066   0.402  -0.248  1.00  0.00     0.182 C 
ENDROOT
BRANCH   1   2
ATOM      2  C   UNL     1       0.455  -0.432   0.958  1.00  0.00     0.170 C 
BRANCH   2   3
ATOM      3  C   UNL     1       1.942  -0.315   1.129  1.00  0.00     0.306 C 
ATOM      4  O   UNL     1       2.421   0.530   1.931  1.00  0.00    -0.252 OA
BRANCH   3   5
ATOM      5  O   UNL     1       2.792  -1.121   0.378  1.00  0.00    -0.481 OA
ATOM      6  H   UNL     1       3.798  -1.044   0.472  1.00  0.00     0.296 HD
ENDBRANCH   3   5
ENDBRANCH   2   3
ENDBRANCH   1   2
BRANCH   1   7
ATOM      7  O   UNL     1       0.572   0.000  -1.441  1.00  0.00    -0.377 OA
ATOM      8  H   UNL     1       0.519  -0.989  -1.509  1.00  0.00     0.212 HD
ENDBRANCH   1   7
BRANCH   1   9
ATOM      9  C   UNL     1      -1.604   0.260  -0.405  1.00  0.00     0.170 C 
BRANCH   9  10
ATOM     10  C   UNL     1      -2.048  -1.141  -0.708  1.00  0.00     0.306 C 
ATOM     11  O   UNL     1      -2.092  -1.548  -1.900  1.00  0.00    -0.252 OA
BRANCH  10  12
ATOM     12  O   UNL     1      -2.397  -1.999   0.331  1.00  0.00    -0.481 OA
ATOM     13  H   UNL     1      -2.691  -2.950   0.143  1.00  0.00     0.296 HD
ENDBRANCH  10  12
ENDBRANCH   9  10
ENDBRANCH   1   9
BRANCH   1  14
ATOM     14  C   UNL     1       0.244   1.865  -0.019  1.00  0.00     0.336 C 
ATOM     15  O   UNL     1      -0.205   2.458   1.001  1.00  0.00    -0.249 OA
BRANCH  14  16
ATOM     16  O   UNL     1       1.025   2.570  -0.932  1.00  0.00    -0.479 OA
ATOM     17  H   UNL     1       1.238   3.549  -0.787  1.00  0.00     0.296 HD
ENDBRANCH  14  16
ENDBRANCH   1  14
TORSDOF 9
