REMARK SMILES N#C[C@@H]1CCCN1C(=O)CNC12CC3CC(CC(O)(C3)C1)C2
REMARK SMILES IDX 10 1 11 2 12 4 18 5 20 6 17 7 21 8 14 9 16 10 15 11 13 12
REMARK SMILES IDX 22 13 19 14 8 16 9 17 7 18 6 19 3 20 5 21 4 22 2 23 1 24
REMARK H PARENT 11 3 19 15
REMARK Flexibility Score: inf
ROOT
ATOM      1  C   UNL     1       1.146   1.255   0.973  1.00  0.00     0.182 C 
ENDROOT
BRANCH   1   2
ATOM      2  N   UNL     1       0.420   1.078  -0.294  1.00  0.00    -0.303 NA
ATOM      3  H   UNL     1       0.495   1.983  -0.819  1.00  0.00     0.123 HD
BRANCH   2   4
ATOM      4  C   UNL     1      -1.013   0.708  -0.167  1.00  0.00     0.022 C 
ATOM      5  C   UNL     1      -2.663  -1.166   0.373  1.00  0.00     0.067 C 
ATOM      6  C   UNL     1      -3.402  -0.213   1.345  1.00  0.00     0.039 C 
ATOM      7  C   UNL     1      -3.289  -1.031  -1.037  1.00  0.00     0.039 C 
ATOM      8  C   UNL     1      -1.164  -0.765   0.316  1.00  0.00     0.057 C 
ATOM      9  C   UNL     1      -3.279   1.246   0.852  1.00  0.00    -0.006 C 
ATOM     10  C   UNL     1      -3.156   0.426  -1.525  1.00  0.00    -0.006 C 
ATOM     11  C   UNL     1      -3.897   1.368  -0.555  1.00  0.00     0.007 C 
ATOM     12  C   UNL     1      -1.789   1.650   0.802  1.00  0.00     0.026 C 
ATOM     13  C   UNL     1      -1.665   0.815  -1.579  1.00  0.00     0.026 C 
BRANCH   5  14
ATOM     14  O   UNL     1      -2.798  -2.484   0.845  1.00  0.00    -0.390 OA
ATOM     15  H   UNL     1      -2.327  -3.084   0.207  1.00  0.00     0.211 HD
ENDBRANCH   5  14
ENDBRANCH   2   4
ENDBRANCH   1   2
BRANCH   1  16
ATOM     16  C   UNL     1       2.622   1.275   0.699  1.00  0.00     0.237 C 
ATOM     17  O   UNL     1       3.235   2.375   0.736  1.00  0.00    -0.273 OA
BRANCH  16  18
ATOM     18  N   UNL     1       3.336   0.071   0.360  1.00  0.00    -0.326 N 
ATOM     19  C   UNL     1       2.740  -1.256   0.360  1.00  0.00     0.121 C 
ATOM     20  C   UNL     1       4.760   0.047   0.060  1.00  0.00     0.189 C 
ATOM     21  C   UNL     1       3.840  -2.205  -0.095  1.00  0.00     0.025 C 
ATOM     22  C   UNL     1       5.148  -1.432   0.052  1.00  0.00     0.043 C 
BRANCH  20  23
ATOM     23  C   UNL     1       5.005   0.670  -1.252  1.00  0.00     0.087 C 
ATOM     24  N   UNL     1       5.195   1.164  -2.282  1.00  0.00    -0.196 NA
ENDBRANCH  20  23
ENDBRANCH  16  18
ENDBRANCH   1  16
TORSDOF 6
