REMARK SMILES O=c1[nH]c2ccccc2n1CCN1CCN(c2cccc(C(F)(F)F)c2)CC1
REMARK SMILES IDX 16 1 15 2 14 3 13 4 28 5 27 6 17 7 21 8 26 9 20 10 19 11
REMARK SMILES IDX 18 12 22 13 23 14 24 15 25 16 12 17 11 18 10 19 2 20 9 21
REMARK SMILES IDX 1 22 3 23 4 24 8 25 5 27 7 28 6 29
REMARK H PARENT 3 26
REMARK Flexibility Score: inf
ROOT
ATOM      1  N   UNL     1       1.778  -0.100   0.986  1.00  0.00    -0.369 N 
ATOM      2  C   UNL     1       1.232  -1.401   0.580  1.00  0.00     0.132 C 
ATOM      3  C   UNL     1      -0.304  -1.388   0.650  1.00  0.00     0.106 C 
ATOM      4  N   UNL     1      -0.852  -0.075   0.248  1.00  0.00    -0.298 NA
ATOM      5  C   UNL     1      -0.418   1.022   1.153  1.00  0.00     0.106 C 
ATOM      6  C   UNL     1       0.950   0.774   1.821  1.00  0.00     0.132 C 
ENDROOT
BRANCH   1   7
ATOM      7  C   UNL     1       3.102   0.293   0.574  1.00  0.00     0.037 A 
ATOM      8  C   UNL     1       5.458  -0.252   0.216  1.00  0.00     0.058 A 
ATOM      9  C   UNL     1       4.167  -0.622   0.636  1.00  0.00     0.039 A 
ATOM     10  C   UNL     1       5.680   1.061  -0.232  1.00  0.00     0.013 A 
ATOM     11  C   UNL     1       4.623   1.970  -0.305  1.00  0.00     0.003 A 
ATOM     12  C   UNL     1       3.339   1.589   0.087  1.00  0.00     0.026 A 
BRANCH   8  13
ATOM     13  C   UNL     1       6.602  -1.226   0.344  1.00  0.00     0.416 C 
ATOM     14  F   UNL     1       7.619  -0.913  -0.541  1.00  0.00    -0.166 F 
ATOM     15  F   UNL     1       7.097  -1.179   1.633  1.00  0.00    -0.166 F 
ATOM     16  F   UNL     1       6.173  -2.513   0.072  1.00  0.00    -0.166 F 
ENDBRANCH   8  13
ENDBRANCH   1   7
BRANCH   4  17
ATOM     17  C   UNL     1      -0.591   0.227  -1.179  1.00  0.00     0.106 C 
BRANCH  17  18
ATOM     18  C   UNL     1      -1.745   1.035  -1.780  1.00  0.00     0.143 C 
BRANCH  18  19
ATOM     19  N   UNL     1      -2.998   0.283  -1.694  1.00  0.00    -0.291 N 
ATOM     20  C   UNL     1      -3.417  -0.715  -2.513  1.00  0.00     0.326 A 
ATOM     21  C   UNL     1      -3.935   0.321  -0.724  1.00  0.00     0.069 A 
ATOM     22  O   UNL     1      -2.787  -1.084  -3.539  1.00  0.00    -0.248 OA
ATOM     23  N   UNL     1      -4.576  -1.290  -2.112  1.00  0.00    -0.306 N 
ATOM     24  C   UNL     1      -4.887  -0.628  -0.984  1.00  0.00     0.066 A 
ATOM     25  C   UNL     1      -4.005   1.138   0.406  1.00  0.00     0.028 A 
ATOM     26  H   UNL     1      -5.096  -2.076  -2.563  1.00  0.00     0.171 HD
ATOM     27  C   UNL     1      -5.976  -0.834  -0.141  1.00  0.00     0.028 A 
ATOM     28  C   UNL     1      -5.095   0.956   1.278  1.00  0.00     0.002 A 
ATOM     29  C   UNL     1      -6.076  -0.025   1.006  1.00  0.00     0.002 A 
ENDBRANCH  18  19
ENDBRANCH  17  18
ENDBRANCH   4  17
TORSDOF 5
