REMARK SMILES Cc1nccn1C[C@H]1CCc2c(c3cccc4c3n2CCC4)C1=O
REMARK SMILES IDX 7 1 6 2 1 3 2 4 3 5 4 6 5 7 8 8 9 9 23 10 10 11 12 12 24 13
REMARK SMILES IDX 11 14 13 15 19 16 14 17 18 18 20 19 15 20 17 21 21 22 16 23
REMARK SMILES IDX 22 24
REMARK H PARENT
REMARK Flexibility Score: inf
ROOT
ATOM      1  C   UNL     1       3.098  -0.441  -0.966  1.00  0.00     0.135 C 
ENDROOT
BRANCH   1   2
ATOM      2  N   UNL     1       4.155   0.532  -0.674  1.00  0.00    -0.334 N 
ATOM      3  C   UNL     1       4.981  -0.400   1.525  1.00  0.00     0.087 C 
ATOM      4  C   UNL     1       4.990   0.576   0.389  1.00  0.00     0.105 A 
ATOM      5  N   UNL     1       5.816   1.643   0.356  1.00  0.00    -0.242 NA
ATOM      6  C   UNL     1       5.488   2.282  -0.785  1.00  0.00     0.131 A 
ATOM      7  C   UNL     1       4.470   1.605  -1.418  1.00  0.00     0.107 A 
ENDBRANCH   1   2
BRANCH   1   8
ATOM      8  C   UNL     1       1.828  -0.169  -0.131  1.00  0.00     0.081 C 
ATOM      9  C   UNL     1       1.264   1.255  -0.420  1.00  0.00     0.020 C 
ATOM     10  C   UNL     1       0.775  -1.237  -0.385  1.00  0.00     0.170 C 
ATOM     11  C   UNL     1      -0.068   1.538   0.306  1.00  0.00     0.055 C 
ATOM     12  C   UNL     1      -0.636  -0.867  -0.247  1.00  0.00     0.047 A 
ATOM     13  O   UNL     1       1.101  -2.431  -0.623  1.00  0.00    -0.294 OA
ATOM     14  C   UNL     1      -1.039   0.426   0.052  1.00  0.00     0.030 A 
ATOM     15  C   UNL     1      -1.796  -1.616  -0.369  1.00  0.00     0.011 A 
ATOM     16  N   UNL     1      -2.386   0.487   0.154  1.00  0.00    -0.344 N 
ATOM     17  C   UNL     1      -2.044  -2.955  -0.674  1.00  0.00     0.011 A 
ATOM     18  C   UNL     1      -2.824  -0.746  -0.126  1.00  0.00     0.052 A 
ATOM     19  C   UNL     1      -3.273   1.624   0.402  1.00  0.00     0.123 C 
ATOM     20  C   UNL     1      -3.392  -3.375  -0.728  1.00  0.00     0.001 A 
ATOM     21  C   UNL     1      -4.155  -1.120  -0.156  1.00  0.00    -0.024 A 
ATOM     22  C   UNL     1      -4.649   1.121   0.906  1.00  0.00     0.027 C 
ATOM     23  C   UNL     1      -4.446  -2.461  -0.479  1.00  0.00     0.006 A 
ATOM     24  C   UNL     1      -5.202  -0.055   0.060  1.00  0.00     0.039 C 
ENDBRANCH   1   8
TORSDOF 2
