REMARK SMILES CC(C)CCC[C@@H](C)[C@H]1CC[C@H]2[C@@H]3CC=C4C[C@@H](O)CC[C@]4(C)[C@H]3CC[C@]12C
REMARK SMILES IDX 6 1 7 2 8 3 9 4 10 5 27 6 11 7 12 8 26 9 28 10 13 11 25 12
REMARK SMILES IDX 14 13 24 14 15 15 22 16 16 17 21 18 23 19 17 20 20 21 18 22
REMARK SMILES IDX 19 23 5 25 4 26 2 27 1 28 3 29
REMARK H PARENT 19 24
REMARK Flexibility Score: inf
ROOT
ATOM      1  C   UNL     1      -4.083   0.008  -0.555  1.00  0.00     0.003 C 
ENDROOT
BRANCH   1   2
ATOM      2  C   UNL     1      -2.717   0.754  -0.590  1.00  0.00    -0.011 C 
ATOM      3  C   UNL     1      -2.703   1.848   0.496  1.00  0.00     0.008 C 
BRANCH   2   4
ATOM      4  C   UNL     1      -1.533  -0.261  -0.409  1.00  0.00    -0.002 C 
ATOM      5  C   UNL     1      -1.524  -1.359  -1.511  1.00  0.00     0.005 C 
ATOM      6  C   UNL     1      -0.070   0.284  -0.431  1.00  0.00    -0.026 C 
ATOM      7  C   UNL     1      -0.060  -1.736  -1.775  1.00  0.00     0.005 C 
ATOM      8  C   UNL     1       0.702  -1.026  -0.671  1.00  0.00    -0.001 C 
ATOM      9  C   UNL     1       0.455   0.861   0.910  1.00  0.00     0.007 C 
ATOM     10  C   UNL     1       0.109   1.319  -1.588  1.00  0.00     0.012 C 
ATOM     11  C   UNL     1       2.226  -0.832  -0.842  1.00  0.00     0.000 C 
ATOM     12  C   UNL     1       1.983   1.095   0.865  1.00  0.00     0.005 C 
ATOM     13  C   UNL     1       2.916  -2.184  -1.070  1.00  0.00     0.031 C 
ATOM     14  C   UNL     1       2.792  -0.176   0.453  1.00  0.00     0.003 C 
ATOM     15  C   UNL     1       4.411  -2.101  -0.958  1.00  0.00    -0.027 C 
ATOM     16  C   UNL     1       4.350   0.062   0.364  1.00  0.00    -0.008 C 
ATOM     17  C   UNL     1       5.058  -1.181  -0.210  1.00  0.00    -0.065 C 
ATOM     18  C   UNL     1       4.905   0.399   1.801  1.00  0.00     0.014 C 
ATOM     19  C   UNL     1       4.674   1.239  -0.599  1.00  0.00     0.016 C 
ATOM     20  C   UNL     1       6.564  -1.342  -0.060  1.00  0.00     0.063 C 
ATOM     21  C   UNL     1       6.121  -0.427   2.251  1.00  0.00     0.033 C 
ATOM     22  C   UNL     1       7.157  -0.571   1.132  1.00  0.00     0.118 C 
BRANCH  22  23
ATOM     23  O   UNL     1       7.618   0.690   0.718  1.00  0.00    -0.393 OA
ATOM     24  H   UNL     1       8.215   1.028   1.436  1.00  0.00     0.210 HD
ENDBRANCH  22  23
ENDBRANCH   2   4
ENDBRANCH   1   2
BRANCH   1  25
ATOM     25  C   UNL     1      -5.286   0.885  -0.984  1.00  0.00     0.001 C 
BRANCH  25  26
ATOM     26  C   UNL     1      -6.235   1.235   0.185  1.00  0.00     0.003 C 
BRANCH  26  27
ATOM     27  C   UNL     1      -7.421   0.253   0.336  1.00  0.00    -0.017 C 
ATOM     28  C   UNL     1      -8.414   0.785   1.378  1.00  0.00     0.007 C 
ATOM     29  C   UNL     1      -6.961  -1.158   0.730  1.00  0.00     0.007 C 
ENDBRANCH  26  27
ENDBRANCH  25  26
ENDBRANCH   1  25
TORSDOF 6
