REMARK SMILES COC(=O)C[C@](O)(CCCC(C)(C)O)C(=O)O[C@@H]1C(OC)=C[C@]23CCCN2CCc2cc4c(cc2[C@H]13)OCO4
REMARK SMILES IDX 6 1 15 2 16 3 17 4 18 5 19 6 36 7 22 8 23 9 24 10 27 11
REMARK SMILES IDX 25 12 26 13 20 14 21 15 35 16 30 17 34 18 31 19 33 20 32 21
REMARK SMILES IDX 37 22 39 23 38 24 29 25 28 27 7 29 8 31 9 32 10 33 11 34
REMARK SMILES IDX 12 35 13 36 14 37 5 39 3 40 4 41 2 42 1 43
REMARK H PARENT 7 30 14 38
REMARK Flexibility Score: 100.00
ROOT
ATOM      1  C   UNL     1       1.991  -0.003   1.000  1.00  0.00     0.172 C 
ENDROOT
BRANCH   1   2
ATOM      2  C   UNL     1       0.720  -0.780   0.703  1.00  0.00     0.339 C 
ATOM      3  O   UNL     1       0.434  -1.805   1.381  1.00  0.00    -0.249 OA
BRANCH   2   4
ATOM      4  O   UNL     1      -0.126  -0.371  -0.336  1.00  0.00    -0.451 OA
BRANCH   4   5
ATOM      5  C   UNL     1      -1.181  -1.186  -0.852  1.00  0.00     0.251 C 
ATOM      6  C   UNL     1      -1.920  -0.525  -1.958  1.00  0.00     0.135 C 
ATOM      7  C   UNL     1      -2.324  -1.499   0.145  1.00  0.00     0.093 C 
ATOM      8  C   UNL     1      -3.219  -0.817  -1.913  1.00  0.00     0.042 C 
ATOM      9  C   UNL     1      -3.521  -1.796  -0.798  1.00  0.00     0.054 C 
ATOM     10  C   UNL     1      -3.545  -3.206  -1.400  1.00  0.00     0.029 C 
ATOM     11  N   UNL     1      -4.874  -1.588  -0.219  1.00  0.00    -0.293 NA
ATOM     12  C   UNL     1      -4.985  -3.361  -1.880  1.00  0.00     0.018 C 
ATOM     13  C   UNL     1      -5.753  -2.195  -1.241  1.00  0.00     0.085 C 
BRANCH   6  14
ATOM     14  O   UNL     1      -1.299   0.288  -2.914  1.00  0.00    -0.497 OA
ATOM     15  C   UNL     1      -2.001   0.953  -3.958  1.00  0.00     0.278 C 
ENDBRANCH   6  14
BRANCH   7  16
ATOM     16  C   UNL     1      -2.700  -0.347   1.099  1.00  0.00    -0.031 A 
ATOM     17  C   UNL     1      -3.608  -0.622   2.161  1.00  0.00    -0.039 A 
ATOM     18  C   UNL     1      -2.333   1.007   0.864  1.00  0.00     0.055 A 
ATOM     19  C   UNL     1      -4.013   0.402   3.047  1.00  0.00     0.054 A 
ATOM     20  C   UNL     1      -2.754   1.979   1.762  1.00  0.00     0.166 A 
ATOM     21  C   UNL     1      -3.546   1.687   2.816  1.00  0.00     0.166 A 
ATOM     22  O   UNL     1      -2.490   3.335   1.743  1.00  0.00    -0.454 OA
ATOM     23  O   UNL     1      -3.817   2.843   3.524  1.00  0.00    -0.454 OA
ATOM     24  C   UNL     1      -3.150   3.930   2.869  1.00  0.00     0.468 C 
BRANCH  17  25
ATOM     25  C   UNL     1      -4.228  -1.981   2.268  1.00  0.00     0.051 CG0
ATOM     26  G   UNL     1      -5.135  -2.321   1.064  1.00  0.00     0.000 G0
ENDBRANCH  17  25
ENDBRANCH   7  16
BRANCH  11  27
ATOM     27  C   UNL     1      -5.135  -2.321   1.064  1.00  0.00     0.090 CG0
ATOM     28  G   UNL     1      -4.228  -1.981   2.268  1.00  0.00     0.000 G0
ENDBRANCH  11  27
ENDBRANCH   4   5
ENDBRANCH   2   4
ENDBRANCH   1   2
BRANCH   1  29
ATOM     29  O   UNL     1       2.624  -0.563   2.131  1.00  0.00    -0.378 OA
ATOM     30  H   UNL     1       2.879  -1.500   1.916  1.00  0.00     0.212 HD
ENDBRANCH   1  29
BRANCH   1  31
ATOM     31  C   UNL     1       2.940  -0.114  -0.234  1.00  0.00     0.048 C 
BRANCH  31  32
ATOM     32  C   UNL     1       4.334   0.525  -0.030  1.00  0.00     0.007 C 
BRANCH  32  33
ATOM     33  C   UNL     1       5.416  -0.526   0.293  1.00  0.00     0.035 C 
BRANCH  33  34
ATOM     34  C   UNL     1       6.829   0.058   0.572  1.00  0.00     0.059 C 
ATOM     35  C   UNL     1       7.792  -1.113   0.835  1.00  0.00     0.042 C 
ATOM     36  C   UNL     1       7.367   0.868  -0.631  1.00  0.00     0.042 C 
BRANCH  34  37
ATOM     37  O   UNL     1       6.807   0.852   1.736  1.00  0.00    -0.390 OA
ATOM     38  H   UNL     1       6.396   1.727   1.517  1.00  0.00     0.211 HD
ENDBRANCH  34  37
ENDBRANCH  33  34
ENDBRANCH  32  33
ENDBRANCH  31  32
ENDBRANCH   1  31
BRANCH   1  39
ATOM     39  C   UNL     1       1.623   1.468   1.367  1.00  0.00     0.170 C 
BRANCH  39  40
ATOM     40  C   UNL     1       1.479   2.401   0.196  1.00  0.00     0.309 C 
ATOM     41  O   UNL     1       0.396   2.453  -0.444  1.00  0.00    -0.252 OA
BRANCH  40  42
ATOM     42  O   UNL     1       2.565   3.192  -0.187  1.00  0.00    -0.469 OA
ATOM     43  C   UNL     1       2.522   4.063  -1.310  1.00  0.00     0.282 C 
ENDBRANCH  40  42
ENDBRANCH  39  40
ENDBRANCH   1  39
TORSDOF 13
