REMARK SMILES OC(CNCC(O)C1CCc2cc(F)ccc2O1)C1CCc2cc(F)ccc2O1
REMARK SMILES IDX 4 1 3 3 2 4 1 5 19 7 20 8 29 9 21 10 28 11 22 12 27 13 23 14
REMARK SMILES IDX 26 15 24 16 25 17 5 18 6 19 7 20 8 22 9 23 18 24 10 25 17 26
REMARK SMILES IDX 11 27 16 28 12 29 15 30 13 31 14 32
REMARK H PARENT 4 2 1 6 7 21
REMARK Flexibility Score: inf
ROOT
ATOM      1  N   UNL     1      -0.013  -0.039   1.089  1.00  0.00    -0.311 NA
ATOM      2  H   UNL     1      -0.436  -0.914   1.476  1.00  0.00     0.122 HD
ENDROOT
BRANCH   1   3
ATOM      3  C   UNL     1      -1.105   0.898   0.789  1.00  0.00     0.116 C 
BRANCH   3   4
ATOM      4  C   UNL     1      -1.794   0.534  -0.542  1.00  0.00     0.169 C 
BRANCH   4   5
ATOM      5  O   UNL     1      -2.623   1.601  -0.928  1.00  0.00    -0.388 OA
ATOM      6  H   UNL     1      -2.040   2.285  -1.348  1.00  0.00     0.211 HD
ENDBRANCH   4   5
BRANCH   4   7
ATOM      7  C   UNL     1      -2.631  -0.766  -0.431  1.00  0.00     0.203 C 
ATOM      8  C   UNL     1      -3.133  -1.284  -1.796  1.00  0.00     0.053 C 
ATOM      9  O   UNL     1      -3.723  -0.588   0.474  1.00  0.00    -0.487 OA
ATOM     10  C   UNL     1      -4.293  -0.450  -2.357  1.00  0.00     0.043 C 
ATOM     11  C   UNL     1      -5.002  -0.196   0.061  1.00  0.00     0.123 A 
ATOM     12  C   UNL     1      -5.329  -0.137  -1.308  1.00  0.00    -0.003 A 
ATOM     13  C   UNL     1      -5.966   0.122   1.024  1.00  0.00     0.050 A 
ATOM     14  C   UNL     1      -6.615   0.274  -1.694  1.00  0.00     0.046 A 
ATOM     15  C   UNL     1      -7.248   0.516   0.631  1.00  0.00     0.043 A 
ATOM     16  C   UNL     1      -7.572   0.594  -0.726  1.00  0.00     0.123 A 
ATOM     17  F   UNL     1      -8.814   0.984  -1.105  1.00  0.00    -0.207 F 
ENDBRANCH   4   7
ENDBRANCH   3   4
ENDBRANCH   1   3
BRANCH   1  18
ATOM     18  C   UNL     1       0.869   0.511   2.128  1.00  0.00     0.116 C 
BRANCH  18  19
ATOM     19  C   UNL     1       2.040  -0.450   2.415  1.00  0.00     0.169 C 
BRANCH  19  20
ATOM     20  O   UNL     1       2.795   0.016   3.507  1.00  0.00    -0.388 OA
ATOM     21  H   UNL     1       3.154   0.910   3.267  1.00  0.00     0.211 HD
ENDBRANCH  19  20
BRANCH  19  22
ATOM     22  C   UNL     1       2.935  -0.670   1.173  1.00  0.00     0.203 C 
ATOM     23  C   UNL     1       4.046  -1.699   1.450  1.00  0.00     0.053 C 
ATOM     24  O   UNL     1       3.511   0.568   0.747  1.00  0.00    -0.487 OA
ATOM     25  C   UNL     1       4.922  -1.877   0.202  1.00  0.00     0.043 C 
ATOM     26  C   UNL     1       4.642   0.620  -0.076  1.00  0.00     0.123 A 
ATOM     27  C   UNL     1       5.379  -0.549  -0.350  1.00  0.00    -0.003 A 
ATOM     28  C   UNL     1       5.054   1.847  -0.608  1.00  0.00     0.050 A 
ATOM     29  C   UNL     1       6.502  -0.479  -1.187  1.00  0.00     0.046 A 
ATOM     30  C   UNL     1       6.184   1.912  -1.428  1.00  0.00     0.043 A 
ATOM     31  C   UNL     1       6.905   0.750  -1.720  1.00  0.00     0.123 A 
ATOM     32  F   UNL     1       7.997   0.815  -2.521  1.00  0.00    -0.207 F 
ENDBRANCH  19  22
ENDBRANCH  18  19
ENDBRANCH   1  18
TORSDOF 8
