REMARK SMILES O=c1c(O)c(-c2ccc(O)c(O)c2)oc2cc(O)cc(O)c12
REMARK SMILES IDX 17 1 16 2 15 3 22 4 20 5 19 6 2 7 1 8 3 9 5 10 14 11 18 12
REMARK SMILES IDX 21 14 6 16 7 17 13 18 8 19 11 20 9 21 12 22 10 24 4 26
REMARK H PARENT 18 13 21 15 12 23 10 25 4 27
REMARK Flexibility Score: inf
ROOT
ATOM      1  C   UNL     1      -3.630   2.216   0.045  1.00  0.00     0.123 A 
ATOM      2  C   UNL     1      -2.242   2.076   0.013  1.00  0.00     0.094 A 
ATOM      3  C   UNL     1      -1.661   0.807  -0.055  1.00  0.00     0.146 A 
ATOM      4  C   UNL     1      -2.475  -0.350  -0.090  1.00  0.00     0.111 A 
ATOM      5  C   UNL     1      -3.883  -0.203  -0.058  1.00  0.00     0.134 A 
ATOM      6  C   UNL     1      -4.447   1.080   0.009  1.00  0.00     0.093 A 
ATOM      7  C   UNL     1      -1.832  -1.603  -0.148  1.00  0.00     0.238 A 
ATOM      8  O   UNL     1      -2.499  -2.673  -0.170  1.00  0.00    -0.285 OA
ATOM      9  C   UNL     1      -0.430  -1.663  -0.173  1.00  0.00     0.208 A 
ATOM     10  C   UNL     1       0.303  -0.461  -0.159  1.00  0.00     0.180 A 
ATOM     11  O   UNL     1      -0.337   0.703  -0.089  1.00  0.00    -0.452 OA
ENDROOT
BRANCH   1  12
ATOM     12  O   UNL     1      -4.190   3.490   0.112  1.00  0.00    -0.508 OA
ATOM     13  H   UNL     1      -5.194   3.628   0.136  1.00  0.00     0.293 HD
ENDBRANCH   1  12
BRANCH   5  14
ATOM     14  O   UNL     1      -4.722  -1.317  -0.092  1.00  0.00    -0.507 OA
ATOM     15  H   UNL     1      -5.731  -1.225  -0.069  1.00  0.00     0.293 HD
ENDBRANCH   5  14
BRANCH  10  16
ATOM     16  C   UNL     1       1.783  -0.441  -0.202  1.00  0.00     0.025 A 
ATOM     17  C   UNL     1       2.501  -1.270  -1.079  1.00  0.00     0.016 A 
ATOM     18  C   UNL     1       2.486   0.466   0.606  1.00  0.00     0.062 A 
ATOM     19  C   UNL     1       3.895  -1.216  -1.118  1.00  0.00     0.051 A 
ATOM     20  C   UNL     1       3.885   0.527   0.573  1.00  0.00     0.158 A 
ATOM     21  C   UNL     1       4.600  -0.329  -0.298  1.00  0.00     0.157 A 
BRANCH  20  22
ATOM     22  O   UNL     1       4.517   1.445   1.415  1.00  0.00    -0.504 OA
ATOM     23  H   UNL     1       5.518   1.570   1.463  1.00  0.00     0.293 HD
ENDBRANCH  20  22
BRANCH  21  24
ATOM     24  O   UNL     1       5.993  -0.327  -0.383  1.00  0.00    -0.504 OA
ATOM     25  H   UNL     1       6.592   0.271   0.168  1.00  0.00     0.293 HD
ENDBRANCH  21  24
ENDBRANCH  10  16
BRANCH   9  26
ATOM     26  O   UNL     1       0.233  -2.893  -0.180  1.00  0.00    -0.502 OA
ATOM     27  H   UNL     1      -0.263  -3.777  -0.181  1.00  0.00     0.293 HD
ENDBRANCH   9  26
TORSDOF 6
