REMARK SMILES CC(=O)N(C)C1(c2ccccc2)CCN(CCC[C@]2(c3ccc(Cl)c(Cl)c3)CCCN(C(=O)c3ccccc3)C2)CC1
REMARK SMILES IDX 17 1 16 2 15 3 6 4 13 5 42 6 14 7 41 8 4 9 5 10 2 11 1 12
REMARK SMILES IDX 3 13 7 14 8 15 12 16 9 17 11 18 10 19 18 20 19 21 28 22
REMARK SMILES IDX 40 23 29 24 31 25 30 26 20 27 27 28 21 29 25 30 22 31 26 32
REMARK SMILES IDX 23 33 24 34 32 35 33 36 34 37 35 38 39 39 36 40 38 41 37 42
REMARK H PARENT
REMARK Flexibility Score: inf
ROOT
ATOM      1  C   UNL     1      -0.156  -0.901  -0.204  1.00  0.00     0.016 C 
ENDROOT
BRANCH   1   2
ATOM      2  C   UNL     1       1.148  -1.682  -0.474  1.00  0.00     0.084 C 
BRANCH   2   3
ATOM      3  N   UNL     1       2.387  -0.927  -0.171  1.00  0.00    -0.303 NA
ATOM      4  C   UNL     1       4.820   0.248   0.293  1.00  0.00     0.070 C 
ATOM      5  C   UNL     1       3.976  -0.083   1.566  1.00  0.00     0.049 C 
ATOM      6  C   UNL     1       3.852   1.026  -0.667  1.00  0.00     0.049 C 
ATOM      7  C   UNL     1       2.746  -0.964   1.258  1.00  0.00     0.087 C 
ATOM      8  C   UNL     1       2.421   0.439  -0.726  1.00  0.00     0.087 C 
BRANCH   4   9
ATOM      9  N   UNL     1       5.336  -1.025  -0.309  1.00  0.00    -0.336 N 
ATOM     10  C   UNL     1       5.179  -1.356  -1.736  1.00  0.00     0.147 C 
BRANCH   9  11
ATOM     11  C   UNL     1       5.985  -2.022   0.510  1.00  0.00     0.219 C 
ATOM     12  C   UNL     1       7.157  -1.682   1.376  1.00  0.00     0.114 C 
ATOM     13  O   UNL     1       5.550  -3.205   0.510  1.00  0.00    -0.275 OA
ENDBRANCH   9  11
ENDBRANCH   4   9
BRANCH   4  14
ATOM     14  C   UNL     1       6.017   1.171   0.596  1.00  0.00    -0.022 A 
ATOM     15  C   UNL     1       6.336   1.624   1.902  1.00  0.00     0.006 A 
ATOM     16  C   UNL     1       6.847   1.588  -0.470  1.00  0.00     0.006 A 
ATOM     17  C   UNL     1       7.438   2.458   2.117  1.00  0.00     0.000 A 
ATOM     18  C   UNL     1       7.943   2.423  -0.248  1.00  0.00     0.000 A 
ATOM     19  C   UNL     1       8.238   2.862   1.046  1.00  0.00     0.000 A 
ENDBRANCH   4  14
ENDBRANCH   2   3
ENDBRANCH   1   2
BRANCH   1  20
ATOM     20  C   UNL     1      -1.385  -1.832  -0.280  1.00  0.00     0.015 C 
BRANCH  20  21
ATOM     21  C   UNL     1      -2.765  -1.147  -0.545  1.00  0.00     0.013 C 
ATOM     22  C   UNL     1      -2.839  -0.634  -2.016  1.00  0.00     0.015 C 
ATOM     23  C   UNL     1      -2.944   0.107   0.369  1.00  0.00     0.131 C 
ATOM     24  C   UNL     1      -4.188   0.025  -2.301  1.00  0.00     0.022 C 
ATOM     25  N   UNL     1      -4.196   0.820   0.058  1.00  0.00    -0.338 N 
ATOM     26  C   UNL     1      -4.443   1.195  -1.348  1.00  0.00     0.120 C 
BRANCH  21  27
ATOM     27  C   UNL     1      -3.851  -2.232  -0.306  1.00  0.00    -0.038 A 
ATOM     28  C   UNL     1      -3.940  -3.332  -1.189  1.00  0.00     0.026 A 
ATOM     29  C   UNL     1      -4.727  -2.218   0.802  1.00  0.00     0.006 A 
ATOM     30  C   UNL     1      -4.902  -4.333  -1.017  1.00  0.00     0.059 A 
ATOM     31  C   UNL     1      -5.686  -3.219   0.977  1.00  0.00     0.022 A 
ATOM     32  Cl  UNL     1      -4.973  -5.654  -2.178  1.00  0.00    -0.083 Cl
ATOM     33  C   UNL     1      -5.781  -4.273   0.069  1.00  0.00     0.059 A 
ATOM     34  Cl  UNL     1      -7.004  -5.509   0.325  1.00  0.00    -0.083 Cl
ENDBRANCH  21  27
BRANCH  25  35
ATOM     35  C   UNL     1      -4.961   1.430   1.124  1.00  0.00     0.253 C 
ATOM     36  O   UNL     1      -4.828   1.026   2.312  1.00  0.00    -0.269 OA
BRANCH  35  37
ATOM     37  C   UNL     1      -5.924   2.517   0.865  1.00  0.00     0.040 A 
ATOM     38  C   UNL     1      -5.499   3.726   0.292  1.00  0.00     0.014 A 
ATOM     39  C   UNL     1      -7.287   2.327   1.160  1.00  0.00     0.014 A 
ATOM     40  C   UNL     1      -6.429   4.730   0.002  1.00  0.00     0.001 A 
ATOM     41  C   UNL     1      -8.215   3.331   0.862  1.00  0.00     0.001 A 
ATOM     42  C   UNL     1      -7.787   4.527   0.279  1.00  0.00     0.000 A 
ENDBRANCH  35  37
ENDBRANCH  25  35
ENDBRANCH  20  21
ENDBRANCH   1  20
TORSDOF 10
