REMARK SMILES CCOP(=O)(OCC)[C@@H](C)NC(=O)N(CCCl)N=O
REMARK SMILES IDX 9 1 10 2 4 3 5 4 3 5 2 6 1 7 6 8 7 9 8 10 11 11 12 12 13 14
REMARK SMILES IDX 14 15 15 16 16 17 17 18 18 19 19 20
REMARK H PARENT 11 13
REMARK Flexibility Score: inf
ROOT
ATOM      1  C   UNL     1      -0.320  -0.143  -1.710  1.00  0.00     0.196 C 
ATOM      2  C   UNL     1      -0.540   0.896  -2.809  1.00  0.00     0.045 C 
ENDROOT
BRANCH   1   3
ATOM      3  P   UNL     1      -1.459   0.150  -0.312  1.00  0.00     0.352 P 
ATOM      4  O   UNL     1      -2.890  -0.050  -0.774  1.00  0.00    -0.258 OA
BRANCH   3   5
ATOM      5  O   UNL     1      -1.195   1.735   0.274  1.00  0.00    -0.307 OA
BRANCH   5   6
ATOM      6  C   UNL     1      -2.291   2.552  -0.062  1.00  0.00     0.167 C 
ATOM      7  C   UNL     1      -1.994   3.981   0.364  1.00  0.00     0.035 C 
ENDBRANCH   5   6
ENDBRANCH   3   5
BRANCH   3   8
ATOM      8  O   UNL     1      -1.087  -0.935   0.954  1.00  0.00    -0.307 OA
BRANCH   8   9
ATOM      9  C   UNL     1      -1.626  -2.200   0.652  1.00  0.00     0.167 C 
ATOM     10  C   UNL     1      -1.101  -3.212   1.659  1.00  0.00     0.035 C 
ENDBRANCH   8   9
ENDBRANCH   3   8
ENDBRANCH   1   3
BRANCH   1  11
ATOM     11  N   UNL     1       1.061  -0.080  -1.228  1.00  0.00    -0.322 N 
ATOM     12  C   UNL     1       1.779  -1.252  -0.801  1.00  0.00     0.341 C 
ATOM     13  H   UNL     1       1.468   0.865  -1.055  1.00  0.00     0.166 HD
ATOM     14  O   UNL     1       1.349  -2.391  -1.127  1.00  0.00    -0.247 OA
BRANCH  12  15
ATOM     15  N   UNL     1       2.977  -1.145   0.004  1.00  0.00    -0.177 N 
BRANCH  15  16
ATOM     16  C   UNL     1       3.270   0.054   0.799  1.00  0.00     0.169 C 
BRANCH  16  17
ATOM     17  C   UNL     1       2.225   0.276   1.894  1.00  0.00     0.133 C 
ATOM     18  Cl  UNL     1       2.135  -1.127   2.992  1.00  0.00    -0.125 Cl
ENDBRANCH  16  17
ENDBRANCH  15  16
BRANCH  15  19
ATOM     19  N   UNL     1       3.879  -2.222   0.111  1.00  0.00     0.061 NA
ATOM     20  O   UNL     1       3.768  -3.253  -0.584  1.00  0.00    -0.125 OA
ENDBRANCH  15  19
ENDBRANCH  12  15
ENDBRANCH   1  11
TORSDOF 10
