REMARK SMILES CC1(C)Cc2c(-c3ccccc3)c(-c3ccc(Cl)cc3)c(CC(=O)O)n2C1
REMARK SMILES IDX 22 1 21 2 1 3 2 4 3 5 27 6 4 7 26 8 5 9 6 10 13 11 7 12 8 13
REMARK SMILES IDX 12 14 9 15 11 16 10 17 14 18 15 19 20 20 16 21 19 22 17 23
REMARK SMILES IDX 18 24 23 25 24 26 25 27
REMARK H PARENT 25 28
REMARK Flexibility Score: inf
ROOT
ATOM      1  C   UNL     1       0.808  -2.872   0.748  1.00  0.00     0.177 C 
ENDROOT
BRANCH   1   2
ATOM      2  C   UNL     1       0.635  -1.395   0.551  1.00  0.00     0.037 A 
ATOM      3  C   UNL     1       4.251   1.442   1.268  1.00  0.00     0.013 C 
ATOM      4  C   UNL     1       3.524   0.863   0.038  1.00  0.00    -0.012 C 
ATOM      5  C   UNL     1       4.458   0.931  -1.186  1.00  0.00     0.013 C 
ATOM      6  C   UNL     1       3.087  -0.618   0.315  1.00  0.00     0.129 C 
ATOM      7  C   UNL     1       2.199   1.663  -0.232  1.00  0.00     0.063 C 
ATOM      8  N   UNL     1       1.648  -0.542   0.329  1.00  0.00    -0.346 N 
ATOM      9  C   UNL     1       1.165   0.641   0.024  1.00  0.00     0.027 A 
ATOM     10  C   UNL     1      -0.218   0.625   0.035  1.00  0.00     0.011 A 
ATOM     11  C   UNL     1      -0.564  -0.693   0.374  1.00  0.00     0.011 A 
BRANCH  10  12
ATOM     12  C   UNL     1      -1.128   1.764  -0.214  1.00  0.00    -0.016 A 
ATOM     13  C   UNL     1      -0.891   2.650  -1.278  1.00  0.00     0.009 A 
ATOM     14  C   UNL     1      -2.247   1.970   0.612  1.00  0.00     0.009 A 
ATOM     15  C   UNL     1      -1.757   3.723  -1.510  1.00  0.00     0.001 A 
ATOM     16  C   UNL     1      -3.111   3.043   0.376  1.00  0.00     0.001 A 
ATOM     17  C   UNL     1      -2.866   3.919  -0.684  1.00  0.00     0.000 A 
ENDBRANCH  10  12
BRANCH  11  18
ATOM     18  C   UNL     1      -1.926  -1.261   0.403  1.00  0.00    -0.016 A 
ATOM     19  C   UNL     1      -2.782  -1.095  -0.697  1.00  0.00     0.010 A 
ATOM     20  C   UNL     1      -2.385  -1.953   1.535  1.00  0.00     0.010 A 
ATOM     21  C   UNL     1      -4.075  -1.626  -0.671  1.00  0.00     0.021 A 
ATOM     22  C   UNL     1      -3.678  -2.483   1.559  1.00  0.00     0.021 A 
ATOM     23  C   UNL     1      -4.524  -2.322   0.456  1.00  0.00     0.041 A 
ATOM     24  Cl  UNL     1      -6.147  -2.986   0.489  1.00  0.00    -0.084 Cl
ENDBRANCH  11  18
ENDBRANCH   1   2
BRANCH   1  25
ATOM     25  C   UNL     1       0.606  -3.587  -0.548  1.00  0.00     0.309 C 
ATOM     26  O   UNL     1       1.568  -3.722  -1.352  1.00  0.00    -0.252 OA
BRANCH  25  27
ATOM     27  O   UNL     1      -0.656  -4.063  -0.888  1.00  0.00    -0.481 OA
ATOM     28  H   UNL     1      -0.815  -4.531  -1.772  1.00  0.00     0.296 HD
ENDBRANCH  25  27
ENDBRANCH   1  25
TORSDOF 5
