REMARK SMILES O=C(O)CCCCCCNC1c2ccccc2CCc2ccccc21
REMARK SMILES IDX 7 1 6 2 5 3 4 4 2 5 1 6 3 7 8 9 9 10 10 11 11 13 12 14 13 15
REMARK SMILES IDX 17 16 14 17 16 18 15 19 18 20 25 22 20 23 24 24 21 25 23 26
REMARK SMILES IDX 22 27 19 28
REMARK H PARENT 3 8 10 12
REMARK Flexibility Score: 90.00
ROOT
ATOM      1  C   UNL     1       2.995   0.025  -0.020  1.00  0.00     0.001 C 
ENDROOT
BRANCH   1   2
ATOM      2  C   UNL     1       3.942  -1.045  -0.585  1.00  0.00     0.001 C 
BRANCH   2   3
ATOM      3  C   UNL     1       5.251  -1.157   0.212  1.00  0.00     0.012 C 
BRANCH   3   4
ATOM      4  C   UNL     1       6.173   0.052   0.008  1.00  0.00     0.122 C 
BRANCH   4   5
ATOM      5  C   UNL     1       7.482  -0.170   0.698  1.00  0.00     0.303 C 
ATOM      6  O   UNL     1       8.446  -0.687   0.073  1.00  0.00    -0.252 OA
BRANCH   5   7
ATOM      7  O   UNL     1       7.620   0.156   2.044  1.00  0.00    -0.481 OA
ATOM      8  H   UNL     1       8.495  -0.002   2.529  1.00  0.00     0.296 HD
ENDBRANCH   5   7
ENDBRANCH   4   5
ENDBRANCH   3   4
ENDBRANCH   2   3
ENDBRANCH   1   2
BRANCH   1   9
ATOM      9  C   UNL     1       1.651   0.012  -0.757  1.00  0.00     0.015 C 
BRANCH   9  10
ATOM     10  C   UNL     1       0.710   1.088  -0.210  1.00  0.00     0.082 C 
BRANCH  10  11
ATOM     11  N   UNL     1      -0.563   1.063  -0.950  1.00  0.00    -0.306 NA
ATOM     12  H   UNL     1      -0.897   2.033  -1.150  1.00  0.00     0.123 HD
BRANCH  11  13
ATOM     13  C   UNL     1      -1.607   0.235  -0.302  1.00  0.00     0.115 C 
BRANCH  13  14
ATOM     14  C   UNL     1      -2.316   0.888   0.896  1.00  0.00    -0.023 A 
ATOM     15  C   UNL     1      -1.959   2.197   1.316  1.00  0.00     0.006 A 
ATOM     16  C   UNL     1      -3.315   0.190   1.663  1.00  0.00    -0.043 A 
ATOM     17  C   UNL     1      -2.561   2.800   2.417  1.00  0.00     0.000 A 
ATOM     18  C   UNL     1      -3.900   0.837   2.770  1.00  0.00     0.004 A 
ATOM     19  C   UNL     1      -3.528   2.123   3.142  1.00  0.00     0.000 A 
BRANCH  16  20
ATOM     20  C   UNL     1      -3.885  -1.206   1.396  1.00  0.00     0.040 CG0
ATOM     21  G   UNL     1      -3.311  -2.063   0.266  1.00  0.00     0.000 G0
ENDBRANCH  16  20
ENDBRANCH  13  14
BRANCH  13  22
ATOM     22  C   UNL     1      -2.630  -0.225  -1.332  1.00  0.00    -0.023 A 
ATOM     23  C   UNL     1      -3.427  -1.357  -1.057  1.00  0.00    -0.043 A 
ATOM     24  C   UNL     1      -2.850   0.482  -2.535  1.00  0.00     0.006 A 
ATOM     25  C   UNL     1      -4.395  -1.777  -1.986  1.00  0.00     0.004 A 
ATOM     26  C   UNL     1      -3.808   0.047  -3.453  1.00  0.00     0.000 A 
ATOM     27  C   UNL     1      -4.576  -1.083  -3.181  1.00  0.00     0.000 A 
BRANCH  23  28
ATOM     28  C   UNL     1      -3.311  -2.063   0.266  1.00  0.00     0.040 CG0
ATOM     29  G   UNL     1      -3.885  -1.206   1.396  1.00  0.00     0.000 G0
ENDBRANCH  23  28
ENDBRANCH  13  22
ENDBRANCH  11  13
ENDBRANCH  10  11
ENDBRANCH   9  10
ENDBRANCH   1   9
TORSDOF 9
