REMARK SMILES N[C@@H](CSCC(=O)O)C(=O)O
REMARK SMILES IDX 3 1 2 2 1 3 9 6 10 7 11 8 4 10 5 11 6 12 7 13 8 14
REMARK H PARENT 1 4 1 5 11 9 8 15
REMARK Flexibility Score: inf
ROOT
ATOM      1  C   UNL     1      -0.139   0.553  -0.217  1.00  0.00     0.100 C 
ENDROOT
BRANCH   1   2
ATOM      2  C   UNL     1      -1.558   0.732   0.347  1.00  0.00     0.172 C 
BRANCH   2   3
ATOM      3  N   UNL     1      -1.641   0.222   1.718  1.00  0.00    -0.318 NA
ATOM      4  H   UNL     1      -0.971   0.764   2.312  1.00  0.00     0.119 HD
ATOM      5  H   UNL     1      -2.595   0.437   2.091  1.00  0.00     0.119 HD
ENDBRANCH   2   3
BRANCH   2   6
ATOM      6  C   UNL     1      -2.573   0.055  -0.534  1.00  0.00     0.321 C 
ATOM      7  O   UNL     1      -2.878  -1.155  -0.348  1.00  0.00    -0.251 OA
BRANCH   6   8
ATOM      8  O   UNL     1      -3.144   0.758  -1.590  1.00  0.00    -0.480 OA
ATOM      9  H   UNL     1      -3.816   0.315  -2.205  1.00  0.00     0.296 HD
ENDBRANCH   6   8
ENDBRANCH   2   6
ENDBRANCH   1   2
BRANCH   1  10
ATOM     10  S   UNL     1       0.400  -1.199  -0.170  1.00  0.00    -0.148 SA
BRANCH  10  11
ATOM     11  C   UNL     1       2.041  -0.909  -0.915  1.00  0.00     0.191 C 
BRANCH  11  12
ATOM     12  C   UNL     1       2.976  -0.327   0.095  1.00  0.00     0.313 C 
ATOM     13  O   UNL     1       3.345   0.873  -0.001  1.00  0.00    -0.251 OA
BRANCH  12  14
ATOM     14  O   UNL     1       3.425  -1.111   1.153  1.00  0.00    -0.481 OA
ATOM     15  H   UNL     1       4.053  -0.730   1.851  1.00  0.00     0.296 HD
ENDBRANCH  12  14
ENDBRANCH  11  12
ENDBRANCH  10  11
ENDBRANCH   1  10
TORSDOF 8
