REMARK SMILES O=c1nc[nH]c2nc[nH]c12
REMARK SMILES IDX 1 1 2 2 3 3 4 4 5 5 6 6 10 7 9 8 8 9 7 10
REMARK H PARENT 5 11 9 12
REMARK Flexibility Score: inf
ROOT
ATOM      1  O   UNL     1      -0.195   2.726  -0.324  1.00  0.00    -0.265 OA
ATOM      2  C   UNL     1      -0.532   1.523  -0.166  1.00  0.00     0.298 A 
ATOM      3  N   UNL     1      -1.848   1.173  -0.077  1.00  0.00    -0.198 NA
ATOM      4  C   UNL     1      -2.226  -0.135   0.095  1.00  0.00     0.202 A 
ATOM      5  N   UNL     1      -1.283  -1.124   0.181  1.00  0.00    -0.329 N 
ATOM      6  C   UNL     1       0.024  -0.773   0.093  1.00  0.00     0.162 A 
ATOM      7  C   UNL     1       0.413   0.511  -0.076  1.00  0.00     0.151 A 
ATOM      8  N   UNL     1       1.749   0.566  -0.130  1.00  0.00    -0.339 N 
ATOM      9  C   UNL     1       2.129  -0.729   0.013  1.00  0.00     0.199 A 
ATOM     10  N   UNL     1       1.087  -1.594   0.155  1.00  0.00    -0.219 NA
ATOM     11  H   UNL     1      -1.564  -2.121   0.312  1.00  0.00     0.169 HD
ATOM     12  H   UNL     1       2.358   1.405  -0.253  1.00  0.00     0.168 HD
ENDROOT
TORSDOF 0
