REMARK SMILES C=CC[N+]1([C@H]2C[C@H]3[C@@H]4CC[C@H]5C[C@H](OC(C)=O)[C@@H](N6CCCCC6)C[C@]5(C)[C@H]4CC[C@]3(C)[C@H]2OC(=O)CC)CCCCC1
REMARK SMILES IDX 7 1 6 2 5 3 33 4 31 5 32 6 30 7 29 8 28 9 8 10 9 11 10 12
REMARK SMILES IDX 11 13 12 14 13 15 18 16 25 17 26 18 27 19 4 20 39 21 43 22
REMARK SMILES IDX 40 23 42 24 41 25 3 26 2 27 1 28 34 29 35 30 36 31 37 32
REMARK SMILES IDX 38 33 19 34 20 35 24 36 21 37 23 38 22 39 14 40 15 41 16 42
REMARK SMILES IDX 17 43
REMARK H PARENT
REMARK Flexibility Score: inf
ROOT
ATOM      1  C   UNL     1      -1.133  -0.583  -0.646  1.00  0.00     0.008 C 
ATOM      2  C   UNL     1      -2.268  -0.330  -1.625  1.00  0.00     0.073 C 
ATOM      3  C   UNL     1      -3.527  -0.789  -0.832  1.00  0.00     0.228 C 
ATOM      4  C   UNL     1      -3.107  -0.743   0.692  1.00  0.00     0.240 C 
ATOM      5  C   UNL     1      -1.677  -0.131   0.717  1.00  0.00     0.014 C 
ATOM      6  C   UNL     1      -1.765   1.418   0.887  1.00  0.00     0.016 C 
ATOM      7  C   UNL     1      -0.739  -0.714   1.803  1.00  0.00     0.011 C 
ATOM      8  C   UNL     1       0.735  -0.282   1.587  1.00  0.00     0.005 C 
ATOM      9  C   UNL     1       1.255  -0.566   0.142  1.00  0.00    -0.001 C 
ATOM     10  C   UNL     1       0.268  -0.013  -0.949  1.00  0.00    -0.003 C 
ATOM     11  C   UNL     1       0.734  -0.398  -2.368  1.00  0.00     0.004 C 
ATOM     12  C   UNL     1       2.180   0.043  -2.623  1.00  0.00     0.004 C 
ATOM     13  C   UNL     1       3.113  -0.572  -1.568  1.00  0.00    -0.001 C 
ATOM     14  C   UNL     1       4.598  -0.364  -1.915  1.00  0.00     0.051 C 
ATOM     15  C   UNL     1       5.502  -1.122  -0.926  1.00  0.00     0.194 C 
ATOM     16  C   UNL     1       5.240  -0.677   0.553  1.00  0.00     0.098 C 
ATOM     17  C   UNL     1       3.718  -0.862   0.862  1.00  0.00     0.030 C 
ATOM     18  C   UNL     1       2.749  -0.117  -0.116  1.00  0.00    -0.025 C 
ATOM     19  C   UNL     1       2.896   1.423   0.083  1.00  0.00     0.012 C 
ENDROOT
BRANCH   3  20
ATOM     20  N   UNL     1      -4.866  -0.234  -1.310  1.00  0.00    -0.315 N 
ATOM     21  C   UNL     1      -5.974  -0.950  -0.580  1.00  0.00     0.264 C 
ATOM     22  C   UNL     1      -4.974   1.272  -1.217  1.00  0.00     0.264 C 
ATOM     23  C   UNL     1      -7.227  -0.093  -0.350  1.00  0.00     0.062 C 
ATOM     24  C   UNL     1      -5.632   1.855   0.050  1.00  0.00     0.062 C 
ATOM     25  C   UNL     1      -6.890   1.109   0.521  1.00  0.00     0.012 C 
BRANCH  20  26
ATOM     26  C   UNL     1      -4.950  -0.598  -2.778  1.00  0.00     0.292 C 
BRANCH  26  27
ATOM     27  C   UNL     1      -6.307  -0.400  -3.430  1.00  0.00     0.025 C 
ATOM     28  C   UNL     1      -6.536   0.572  -4.320  1.00  0.00     0.010 C 
ENDBRANCH  26  27
ENDBRANCH  20  26
ENDBRANCH   3  20
BRANCH   4  29
ATOM     29  O   UNL     1      -4.009  -0.067   1.567  1.00  0.00    -0.455 OA
BRANCH  29  30
ATOM     30  C   UNL     1      -4.062  -0.310   2.948  1.00  0.00     0.306 C 
ATOM     31  O   UNL     1      -3.424  -1.273   3.458  1.00  0.00    -0.252 OA
BRANCH  30  32
ATOM     32  C   UNL     1      -4.895   0.563   3.834  1.00  0.00     0.119 C 
ATOM     33  C   UNL     1      -6.110  -0.198   4.359  1.00  0.00     0.016 C 
ENDBRANCH  30  32
ENDBRANCH  29  30
ENDBRANCH   4  29
BRANCH  16  34
ATOM     34  N   UNL     1       5.708   0.709   0.880  1.00  0.00    -0.297 NA
ATOM     35  C   UNL     1       6.999   1.078   0.235  1.00  0.00     0.085 C 
ATOM     36  C   UNL     1       5.829   0.920   2.343  1.00  0.00     0.085 C 
ATOM     37  C   UNL     1       7.624   2.371   0.810  1.00  0.00     0.016 C 
ATOM     38  C   UNL     1       5.913   2.424   2.660  1.00  0.00     0.016 C 
ATOM     39  C   UNL     1       6.575   3.221   1.526  1.00  0.00     0.003 C 
ENDBRANCH  16  34
BRANCH  15  40
ATOM     40  O   UNL     1       5.258  -2.526  -1.065  1.00  0.00    -0.461 OA
BRANCH  40  41
ATOM     41  C   UNL     1       6.127  -3.515  -0.594  1.00  0.00     0.302 C 
ATOM     42  C   UNL     1       5.752  -4.949  -0.751  1.00  0.00     0.139 C 
ATOM     43  O   UNL     1       7.241  -3.211  -0.088  1.00  0.00    -0.253 OA
ENDBRANCH  40  41
ENDBRANCH  15  40
TORSDOF 9
