REMARK SMILES c1ccc(-c2ccc(C(c3ccccc3)n3ccnc3)cc2)cc1
REMARK SMILES IDX 8 1 7 2 6 3 5 4 22 5 21 6 9 7 16 8 18 9 17 10 19 11 20 12
REMARK SMILES IDX 10 13 11 14 15 15 12 16 14 17 13 18 4 19 3 20 23 21 2 22
REMARK SMILES IDX 24 23 1 24
REMARK H PARENT
REMARK Flexibility Score: inf
ROOT
ATOM      1  C   UNL     1      -0.556  -0.237  -0.605  1.00  0.00    -0.021 A 
ATOM      2  C   UNL     1       0.112   0.989  -0.424  1.00  0.00     0.007 A 
ATOM      3  C   UNL     1       1.499   1.025  -0.263  1.00  0.00     0.009 A 
ATOM      4  C   UNL     1       2.251  -0.162  -0.267  1.00  0.00    -0.018 A 
ATOM      5  C   UNL     1       1.583  -1.388  -0.430  1.00  0.00     0.009 A 
ATOM      6  C   UNL     1       0.196  -1.424  -0.593  1.00  0.00     0.007 A 
ENDROOT
BRANCH   1   7
ATOM      7  C   UNL     1      -2.067  -0.317  -0.747  1.00  0.00     0.149 C 
BRANCH   7   8
ATOM      8  N   UNL     1      -2.626   0.893  -1.370  1.00  0.00    -0.326 N 
ATOM      9  C   UNL     1      -3.182   2.416  -2.861  1.00  0.00     0.130 A 
ATOM     10  C   UNL     1      -2.627   1.169  -2.685  1.00  0.00     0.108 A 
ATOM     11  N   UNL     1      -3.522   2.932  -1.662  1.00  0.00    -0.245 NA
ATOM     12  C   UNL     1      -3.166   1.980  -0.775  1.00  0.00     0.200 A 
ENDBRANCH   7   8
BRANCH   7  13
ATOM     13  C   UNL     1      -2.754  -0.640   0.570  1.00  0.00    -0.021 A 
ATOM     14  C   UNL     1      -2.337  -0.059   1.786  1.00  0.00     0.006 A 
ATOM     15  C   UNL     1      -3.876  -1.489   0.575  1.00  0.00     0.006 A 
ATOM     16  C   UNL     1      -3.009  -0.348   2.976  1.00  0.00     0.000 A 
ATOM     17  C   UNL     1      -4.544  -1.775   1.769  1.00  0.00     0.000 A 
ATOM     18  C   UNL     1      -4.109  -1.208   2.969  1.00  0.00     0.000 A 
ENDBRANCH   7  13
ENDBRANCH   1   7
BRANCH   4  19
ATOM     19  C   UNL     1       3.726  -0.123  -0.093  1.00  0.00    -0.018 A 
ATOM     20  C   UNL     1       4.379  -1.080   0.707  1.00  0.00     0.009 A 
ATOM     21  C   UNL     1       4.494   0.873  -0.726  1.00  0.00     0.009 A 
ATOM     22  C   UNL     1       5.767  -1.039   0.869  1.00  0.00     0.001 A 
ATOM     23  C   UNL     1       5.882   0.908  -0.561  1.00  0.00     0.001 A 
ATOM     24  C   UNL     1       6.518  -0.047   0.235  1.00  0.00     0.000 A 
ENDBRANCH   4  19
TORSDOF 4
