REMARK SMILES COC(=O)C[C@@H]1C[C@@H](COc2ccc(-c3ccc(C(=N)NC(=O)OC)cc3)cc2)NC1=O
REMARK SMILES IDX 9 1 8 2 7 3 30 4 6 5 31 6 32 8 5 9 3 10 4 11 2 12 1 13 10 14
REMARK SMILES IDX 11 15 12 16 29 17 13 18 28 19 14 20 15 21 16 22 27 23 17 24
REMARK SMILES IDX 26 25 18 26 19 27 20 28 21 29 22 31 23 33 24 34 25 35
REMARK H PARENT 30 7 20 30 21 32
REMARK Flexibility Score: inf
ROOT
ATOM      1  C   UNL     1      -4.258  -1.314  -2.110  1.00  0.00     0.254 C 
ENDROOT
BRANCH   1   2
ATOM      2  C   UNL     1      -4.985  -0.193  -1.348  1.00  0.00     0.120 C 
ATOM      3  C   UNL     1      -4.043   0.955  -0.899  1.00  0.00     0.042 C 
ATOM      4  N   UNL     1      -5.579  -0.721  -0.133  1.00  0.00    -0.350 N 
ATOM      5  C   UNL     1      -3.969   0.900   0.646  1.00  0.00     0.091 C 
ATOM      6  C   UNL     1      -4.976  -0.132   0.997  1.00  0.00     0.224 C 
ATOM      7  H   UNL     1      -6.289  -1.485  -0.099  1.00  0.00     0.163 HD
ATOM      8  O   UNL     1      -5.244  -0.489   2.175  1.00  0.00    -0.275 OA
BRANCH   5   9
ATOM      9  C   UNL     1      -4.234   2.258   1.331  1.00  0.00     0.136 C 
BRANCH   9  10
ATOM     10  C   UNL     1      -5.586   2.833   1.017  1.00  0.00     0.306 C 
ATOM     11  O   UNL     1      -5.682   3.833   0.255  1.00  0.00    -0.252 OA
BRANCH  10  12
ATOM     12  O   UNL     1      -6.730   2.250   1.571  1.00  0.00    -0.469 OA
ATOM     13  C   UNL     1      -8.047   2.703   1.271  1.00  0.00     0.282 C 
ENDBRANCH  10  12
ENDBRANCH   9  10
ENDBRANCH   5   9
ENDBRANCH   1   2
BRANCH   1  14
ATOM     14  O   UNL     1      -3.396  -2.060  -1.245  1.00  0.00    -0.491 OA
BRANCH  14  15
ATOM     15  C   UNL     1      -2.045  -1.788  -0.980  1.00  0.00     0.119 A 
ATOM     16  C   UNL     1      -1.499  -2.273   0.212  1.00  0.00     0.047 A 
ATOM     17  C   UNL     1      -1.220  -1.074  -1.868  1.00  0.00     0.047 A 
ATOM     18  C   UNL     1      -0.160  -2.034   0.532  1.00  0.00     0.012 A 
ATOM     19  C   UNL     1       0.120  -0.837  -1.552  1.00  0.00     0.012 A 
ATOM     20  C   UNL     1       0.664  -1.312  -0.346  1.00  0.00    -0.018 A 
BRANCH  20  21
ATOM     21  C   UNL     1       2.088  -1.062  -0.012  1.00  0.00    -0.018 A 
ATOM     22  C   UNL     1       3.088  -1.208  -0.989  1.00  0.00     0.009 A 
ATOM     23  C   UNL     1       2.458  -0.678   1.289  1.00  0.00     0.009 A 
ATOM     24  C   UNL     1       4.430  -0.982  -0.672  1.00  0.00     0.012 A 
ATOM     25  C   UNL     1       3.800  -0.447   1.605  1.00  0.00     0.012 A 
ATOM     26  C   UNL     1       4.802  -0.602   0.628  1.00  0.00     0.017 A 
BRANCH  26  27
ATOM     27  C   UNL     1       6.231  -0.359   0.956  1.00  0.00     0.134 C 
ATOM     28  N   UNL     1       6.703  -0.698   2.118  1.00  0.00    -0.284 NA
ATOM     29  N   UNL     1       7.088   0.270  -0.017  1.00  0.00    -0.275 N 
ATOM     30  H   UNL     1       6.126  -1.168   2.854  1.00  0.00     0.189 HD
ATOM     31  C   UNL     1       8.505   0.432   0.130  1.00  0.00     0.412 C 
ATOM     32  H   UNL     1       6.659   0.668  -0.883  1.00  0.00     0.175 HD
ATOM     33  O   UNL     1       9.111  -0.055   1.124  1.00  0.00    -0.224 OA
BRANCH  31  34
ATOM     34  O   UNL     1       9.217   1.131  -0.852  1.00  0.00    -0.453 OA
ATOM     35  C   UNL     1      10.628   1.310  -0.797  1.00  0.00     0.284 C 
ENDBRANCH  31  34
ENDBRANCH  26  27
ENDBRANCH  20  21
ENDBRANCH  14  15
ENDBRANCH   1  14
TORSDOF 9
