REMARK SMILES Cc1c(N(C)CS(=O)(=O)O)c(=O)n(-c2ccccc2)n1C
REMARK SMILES IDX 5 1 4 2 6 3 7 4 8 5 9 6 10 7 3 9 2 10 11 11 1 12 20 13 13 14
REMARK SMILES IDX 12 15 21 16 14 17 15 18 19 19 16 20 18 21 17 22
REMARK H PARENT 10 8
REMARK Flexibility Score: inf
ROOT
ATOM      1  C   UNL     1      -2.523   0.455  -2.684  1.00  0.00     0.145 C 
ATOM      2  N   UNL     1      -2.343  -0.213  -1.394  1.00  0.00    -0.353 N 
ENDROOT
BRANCH   2   3
ATOM      3  C   UNL     1      -3.495  -0.706  -0.630  1.00  0.00     0.284 C 
BRANCH   3   4
ATOM      4  S   UNL     1      -3.753   0.300   0.821  1.00  0.00     0.283 S 
ATOM      5  O   UNL     1      -5.039  -0.107   1.483  1.00  0.00    -0.198 OA
ATOM      6  O   UNL     1      -3.830   1.746   0.418  1.00  0.00    -0.198 OA
BRANCH   4   7
ATOM      7  O   UNL     1      -2.477   0.078   1.893  1.00  0.00    -0.284 OA
ATOM      8  H   UNL     1      -2.637   0.730   2.621  1.00  0.00     0.234 HD
ENDBRANCH   4   7
ENDBRANCH   3   4
ENDBRANCH   2   3
BRANCH   2   9
ATOM      9  C   UNL     1      -1.017  -0.334  -0.855  1.00  0.00     0.127 A 
ATOM     10  C   UNL     1      -0.341  -1.493  -0.504  1.00  0.00     0.061 A 
ATOM     11  C   UNL     1      -0.164   0.694  -0.521  1.00  0.00     0.295 A 
ATOM     12  C   UNL     1      -0.833  -2.898  -0.678  1.00  0.00     0.069 C 
ATOM     13  N   UNL     1       0.851  -1.143   0.041  1.00  0.00    -0.283 N 
ATOM     14  N   UNL     1       0.966   0.185   0.011  1.00  0.00    -0.216 N 
ATOM     15  O   UNL     1      -0.392   1.924  -0.675  1.00  0.00    -0.265 OA
ATOM     16  C   UNL     1       1.852  -2.067   0.581  1.00  0.00     0.172 C 
BRANCH  14  17
ATOM     17  C   UNL     1       2.097   0.946   0.468  1.00  0.00     0.067 A 
ATOM     18  C   UNL     1       1.921   1.988   1.394  1.00  0.00     0.028 A 
ATOM     19  C   UNL     1       3.383   0.674  -0.025  1.00  0.00     0.028 A 
ATOM     20  C   UNL     1       3.020   2.735   1.830  1.00  0.00     0.002 A 
ATOM     21  C   UNL     1       4.479   1.423   0.413  1.00  0.00     0.002 A 
ATOM     22  C   UNL     1       4.298   2.452   1.342  1.00  0.00     0.000 A 
ENDBRANCH  14  17
ENDBRANCH   2   9
TORSDOF 5
