REMARK SMILES OCC(CO)N[C@H]1C[C@](O)(CO)[C@@H](O)[C@H](O)[C@H]1O
REMARK SMILES IDX 6 1 3 3 2 4 1 5 4 7 5 8 7 10 8 11 17 12 9 13 15 14 13 15
REMARK SMILES IDX 18 16 10 18 11 20 12 21 16 23 14 25
REMARK H PARENT 6 2 1 6 5 9 18 17 10 19 12 22 16 24 14 26
REMARK Flexibility Score: inf
ROOT
ATOM      1  N   UNL     1       1.154  -0.681  -0.164  1.00  0.00    -0.304 NA
ATOM      2  H   UNL     1       1.693  -1.577  -0.199  1.00  0.00     0.123 HD
ENDROOT
BRANCH   1   3
ATOM      3  C   UNL     1       2.140   0.422  -0.231  1.00  0.00     0.105 C 
BRANCH   3   4
ATOM      4  C   UNL     1       3.186   0.340   0.903  1.00  0.00     0.177 C 
BRANCH   4   5
ATOM      5  O   UNL     1       4.136   1.362   0.764  1.00  0.00    -0.395 OA
ATOM      6  H   UNL     1       4.790   1.233   1.499  1.00  0.00     0.210 HD
ENDBRANCH   4   5
ENDBRANCH   3   4
BRANCH   3   7
ATOM      7  C   UNL     1       2.830   0.381  -1.606  1.00  0.00     0.177 C 
BRANCH   7   8
ATOM      8  O   UNL     1       1.868   0.456  -2.623  1.00  0.00    -0.395 OA
ATOM      9  H   UNL     1       2.367   0.409  -3.479  1.00  0.00     0.210 HD
ENDBRANCH   7   8
ENDBRANCH   3   7
ENDBRANCH   1   3
BRANCH   1  10
ATOM     10  C   UNL     1       0.276  -0.706   1.032  1.00  0.00     0.088 C 
ATOM     11  C   UNL     1      -0.572   0.583   1.195  1.00  0.00     0.062 C 
ATOM     12  C   UNL     1      -0.688  -1.918   0.973  1.00  0.00     0.162 C 
ATOM     13  C   UNL     1      -1.599   0.786   0.048  1.00  0.00     0.118 C 
ATOM     14  C   UNL     1      -1.700  -1.784  -0.189  1.00  0.00     0.176 C 
ATOM     15  C   UNL     1      -2.516  -0.474  -0.044  1.00  0.00     0.180 C 
BRANCH  12  16
ATOM     16  O   UNL     1       0.022  -3.133   0.919  1.00  0.00    -0.389 OA
ATOM     17  H   UNL     1       0.256  -3.321  -0.027  1.00  0.00     0.211 HD
ENDBRANCH  12  16
BRANCH  13  18
ATOM     18  O   UNL     1      -0.894   0.972  -1.160  1.00  0.00    -0.385 OA
ATOM     19  H   UNL     1      -1.529   1.294  -1.851  1.00  0.00     0.211 HD
ENDBRANCH  13  18
BRANCH  13  20
ATOM     20  C   UNL     1      -2.455   2.041   0.358  1.00  0.00     0.194 C 
BRANCH  20  21
ATOM     21  O   UNL     1      -1.651   3.189   0.371  1.00  0.00    -0.393 OA
ATOM     22  H   UNL     1      -2.254   3.947   0.586  1.00  0.00     0.210 HD
ENDBRANCH  20  21
ENDBRANCH  13  20
BRANCH  14  23
ATOM     23  O   UNL     1      -2.569  -2.888  -0.165  1.00  0.00    -0.388 OA
ATOM     24  H   UNL     1      -2.944  -2.981  -1.079  1.00  0.00     0.211 HD
ENDBRANCH  14  23
BRANCH  15  25
ATOM     25  O   UNL     1      -3.458  -0.347  -1.083  1.00  0.00    -0.387 OA
ATOM     26  H   UNL     1      -2.987  -0.482  -1.946  1.00  0.00     0.211 HD
ENDBRANCH  15  25
ENDBRANCH   1  10
TORSDOF 12
