REMARK SMILES C=C1CC[C@@H]2[C@](C)(CO)[C@H](O)CC[C@@]2(C)[C@@H]1C/C=C1/C(=O)OC[C@H]1O
REMARK SMILES IDX 5 1 4 2 3 3 2 4 1 5 16 6 14 7 15 8 13 9 12 10 10 11 6 12
REMARK SMILES IDX 7 13 8 14 9 15 17 17 18 18 19 19 24 20 20 21 23 22 22 23
REMARK SMILES IDX 21 24 25 25 11 27
REMARK H PARENT 9 16 25 26 11 28
REMARK Flexibility Score: inf
ROOT
ATOM      1  C   UNL     1      -1.959  -0.196  -0.548  1.00  0.00     0.007 C 
ATOM      2  C   UNL     1      -1.799   0.089  -2.079  1.00  0.00     0.009 C 
ATOM      3  C   UNL     1      -0.362  -0.021  -2.613  1.00  0.00     0.031 C 
ATOM      4  C   UNL     1       0.463  -0.965  -1.783  1.00  0.00    -0.073 C 
ATOM      5  C   UNL     1       1.052  -2.018  -2.378  1.00  0.00     0.008 C 
ATOM      6  C   UNL     1       0.531  -0.773  -0.268  1.00  0.00     0.024 C 
ATOM      7  C   UNL     1      -0.660   0.127   0.294  1.00  0.00    -0.022 C 
ATOM      8  C   UNL     1      -0.309   1.647   0.256  1.00  0.00     0.012 C 
ATOM      9  C   UNL     1      -0.898  -0.286   1.781  1.00  0.00     0.010 C 
ATOM     10  C   UNL     1      -2.188   0.272   2.385  1.00  0.00     0.033 C 
ATOM     11  C   UNL     1      -3.419  -0.149   1.553  1.00  0.00     0.123 C 
ATOM     12  C   UNL     1      -3.338   0.312   0.056  1.00  0.00     0.020 C 
ATOM     13  C   UNL     1      -4.488  -0.424  -0.691  1.00  0.00     0.017 C 
ENDROOT
BRANCH  12  14
ATOM     14  C   UNL     1      -3.571   1.863  -0.142  1.00  0.00     0.165 C 
BRANCH  14  15
ATOM     15  O   UNL     1      -3.704   2.559   1.067  1.00  0.00    -0.396 OA
ATOM     16  H   UNL     1      -3.845   3.513   0.831  1.00  0.00     0.210 HD
ENDBRANCH  14  15
ENDBRANCH  12  14
BRANCH   6  17
ATOM     17  C   UNL     1       1.943  -0.284   0.165  1.00  0.00     0.036 C 
BRANCH  17  18
ATOM     18  C   UNL     1       2.985  -1.374   0.169  1.00  0.00    -0.012 C 
ATOM     19  C   UNL     1       4.291  -1.112   0.309  1.00  0.00     0.065 C 
ATOM     20  C   UNL     1       4.936   0.233   0.453  1.00  0.00     0.189 C 
ATOM     21  C   UNL     1       5.334  -2.104   0.406  1.00  0.00     0.336 C 
ATOM     22  C   UNL     1       6.428  -0.095   0.730  1.00  0.00     0.270 C 
ATOM     23  O   UNL     1       6.554  -1.510   0.636  1.00  0.00    -0.459 OA
ATOM     24  O   UNL     1       5.174  -3.349   0.306  1.00  0.00    -0.246 OA
BRANCH  20  25
ATOM     25  O   UNL     1       4.806   0.953  -0.744  1.00  0.00    -0.385 OA
ATOM     26  H   UNL     1       5.063   1.889  -0.537  1.00  0.00     0.211 HD
ENDBRANCH  20  25
ENDBRANCH  17  18
ENDBRANCH   6  17
BRANCH  11  27
ATOM     27  O   UNL     1      -4.640   0.243   2.147  1.00  0.00    -0.392 OA
ATOM     28  H   UNL     1      -4.474   0.945   2.828  1.00  0.00     0.210 HD
ENDBRANCH  11  27
TORSDOF 6
