REMARK SMILES CCCCc1nc2cc(/C=C/C(=O)NO)ccc2n1CCN(CC)CC
REMARK SMILES IDX 5 1 6 2 7 3 18 4 17 5 16 6 9 7 8 8 19 9 4 10 3 11 2 12 1 13
REMARK SMILES IDX 20 14 21 15 22 16 23 17 24 18 25 19 26 20 10 21 11 22 12 23
REMARK SMILES IDX 13 24 14 25 15 27
REMARK H PARENT 14 26 15 28
REMARK Flexibility Score: inf
ROOT
ATOM      1  C   UNL     1       0.128   1.447   0.812  1.00  0.00     0.109 A 
ATOM      2  N   UNL     1       1.465   1.613   0.627  1.00  0.00    -0.233 NA
ATOM      3  C   UNL     1       1.931   0.352   0.601  1.00  0.00     0.089 A 
ATOM      4  C   UNL     1       0.914  -0.538   0.770  1.00  0.00     0.068 A 
ATOM      5  C   UNL     1       1.131  -1.916   0.737  1.00  0.00     0.029 A 
ATOM      6  C   UNL     1       2.447  -2.367   0.537  1.00  0.00     0.010 A 
ATOM      7  C   UNL     1       3.519  -1.449   0.379  1.00  0.00    -0.023 A 
ATOM      8  C   UNL     1       3.247  -0.057   0.400  1.00  0.00     0.038 A 
ATOM      9  N   UNL     1      -0.238   0.138   0.927  1.00  0.00    -0.327 N 
ENDROOT
BRANCH   1  10
ATOM     10  C   UNL     1      -0.818   2.619   0.892  1.00  0.00     0.075 C 
BRANCH  10  11
ATOM     11  C   UNL     1      -0.624   3.599  -0.273  1.00  0.00     0.008 C 
BRANCH  11  12
ATOM     12  C   UNL     1      -1.016   2.979  -1.622  1.00  0.00    -0.003 C 
ATOM     13  C   UNL     1      -0.849   3.980  -2.760  1.00  0.00     0.004 C 
ENDBRANCH  11  12
ENDBRANCH  10  11
ENDBRANCH   1  10
BRANCH   9  14
ATOM     14  C   UNL     1      -1.582  -0.426   1.085  1.00  0.00     0.139 C 
BRANCH  14  15
ATOM     15  C   UNL     1      -2.228  -0.644  -0.298  1.00  0.00     0.106 C 
BRANCH  15  16
ATOM     16  N   UNL     1      -3.660  -1.012  -0.235  1.00  0.00    -0.302 NA
BRANCH  16  17
ATOM     17  C   UNL     1      -4.534   0.130   0.124  1.00  0.00     0.081 C 
ATOM     18  C   UNL     1      -5.343   0.551  -1.095  1.00  0.00     0.021 C 
ENDBRANCH  16  17
BRANCH  16  19
ATOM     19  C   UNL     1      -3.908  -2.223   0.576  1.00  0.00     0.081 C 
ATOM     20  C   UNL     1      -5.184  -2.925   0.120  1.00  0.00     0.021 C 
ENDBRANCH  16  19
ENDBRANCH  15  16
ENDBRANCH  14  15
ENDBRANCH   9  14
BRANCH   7  21
ATOM     21  C   UNL     1       4.882  -1.988   0.150  1.00  0.00     0.014 C 
ATOM     22  C   UNL     1       6.006  -1.283   0.344  1.00  0.00     0.074 C 
BRANCH  22  23
ATOM     23  C   UNL     1       7.345  -1.854   0.102  1.00  0.00     0.267 C 
ATOM     24  O   UNL     1       7.473  -3.041  -0.302  1.00  0.00    -0.268 OA
ATOM     25  N   UNL     1       8.510  -1.053   0.323  1.00  0.00    -0.234 N 
ATOM     26  H   UNL     1       8.416  -0.067   0.653  1.00  0.00     0.199 HD
BRANCH  25  27
ATOM     27  O   UNL     1       9.745  -1.554   0.082  1.00  0.00    -0.288 OA
ATOM     28  H   UNL     1      10.033  -1.948   0.944  1.00  0.00     0.246 HD
ENDBRANCH  25  27
ENDBRANCH  22  23
ENDBRANCH   7  21
TORSDOF 11
