REMARK SMILES CCc1cc2c(cc1CC)CC(NC[C@H](O)c1ccc(O)c3[nH]c(=O)ccc13)C2
REMARK SMILES IDX 14 1 13 2 12 4 3 5 8 6 4 7 7 8 5 9 6 10 29 11 11 12 2 13
REMARK SMILES IDX 1 14 9 15 10 16 15 17 16 18 17 20 28 21 18 22 27 23 22 24
REMARK SMILES IDX 19 25 26 26 23 27 20 28 24 29 25 31 21 32
REMARK H PARENT 13 3 16 19 23 30 21 33
REMARK Flexibility Score: inf
ROOT
ATOM      1  C   UNL     1       0.718  -0.123  -1.006  1.00  0.00     0.118 C 
ENDROOT
BRANCH   1   2
ATOM      2  N   UNL     1       1.153   1.288  -0.929  1.00  0.00    -0.310 NA
ATOM      3  H   UNL     1       1.499   1.576  -1.876  1.00  0.00     0.123 HD
BRANCH   2   4
ATOM      4  C   UNL     1       0.089   2.245  -0.536  1.00  0.00     0.062 C 
ATOM      5  C   UNL     1      -3.950   0.273   0.989  1.00  0.00    -0.045 A 
ATOM      6  C   UNL     1      -4.281   0.408  -0.399  1.00  0.00    -0.045 A 
ATOM      7  C   UNL     1      -2.708   0.761   1.455  1.00  0.00     0.008 A 
ATOM      8  C   UNL     1      -3.381   1.075  -1.259  1.00  0.00     0.008 A 
ATOM      9  C   UNL     1      -1.837   1.385   0.563  1.00  0.00    -0.043 A 
ATOM     10  C   UNL     1      -2.172   1.551  -0.756  1.00  0.00    -0.043 A 
ATOM     11  C   UNL     1      -0.496   1.943   0.869  1.00  0.00     0.055 C 
ATOM     12  C   UNL     1      -1.113   2.253  -1.519  1.00  0.00     0.055 C 
BRANCH   5  13
ATOM     13  C   UNL     1      -4.871  -0.380   1.998  1.00  0.00     0.032 C 
ATOM     14  C   UNL     1      -4.713  -1.897   2.000  1.00  0.00     0.009 C 
ENDBRANCH   5  13
BRANCH   6  15
ATOM     15  C   UNL     1      -5.546  -0.151  -1.018  1.00  0.00     0.032 C 
ATOM     16  C   UNL     1      -5.246  -1.354  -1.913  1.00  0.00     0.009 C 
ENDBRANCH   6  15
ENDBRANCH   2   4
ENDBRANCH   1   2
BRANCH   1  17
ATOM     17  C   UNL     1       1.890  -1.037  -1.426  1.00  0.00     0.159 C 
BRANCH  17  18
ATOM     18  O   UNL     1       1.459  -2.369  -1.597  1.00  0.00    -0.387 OA
ATOM     19  H   UNL     1       0.846  -2.607  -0.861  1.00  0.00     0.211 HD
ENDBRANCH  17  18
BRANCH  17  20
ATOM     20  C   UNL     1       3.053  -0.967  -0.431  1.00  0.00    -0.009 A 
ATOM     21  C   UNL     1       4.267  -0.251  -0.679  1.00  0.00     0.008 A 
ATOM     22  C   UNL     1       2.919  -1.663   0.790  1.00  0.00     0.011 A 
ATOM     23  C   UNL     1       4.463   0.562  -1.820  1.00  0.00     0.016 A 
ATOM     24  C   UNL     1       5.343  -0.345   0.255  1.00  0.00     0.091 A 
ATOM     25  C   UNL     1       3.968  -1.732   1.704  1.00  0.00     0.049 A 
ATOM     26  C   UNL     1       5.681   1.202  -2.036  1.00  0.00     0.072 A 
ATOM     27  N   UNL     1       6.525   0.301   0.005  1.00  0.00    -0.319 N 
ATOM     28  C   UNL     1       5.185  -1.097   1.435  1.00  0.00     0.139 A 
ATOM     29  C   UNL     1       6.714   1.052  -1.114  1.00  0.00     0.248 A 
ATOM     30  H   UNL     1       7.321   0.226   0.681  1.00  0.00     0.170 HD
ATOM     31  O   UNL     1       7.823   1.618  -1.315  1.00  0.00    -0.270 OA
BRANCH  28  32
ATOM     32  O   UNL     1       6.239  -1.209   2.345  1.00  0.00    -0.506 OA
ATOM     33  H   UNL     1       6.149  -1.747   3.199  1.00  0.00     0.293 HD
ENDBRANCH  28  32
ENDBRANCH  17  20
ENDBRANCH   1  17
TORSDOF 8
