REMARK SMILES O=c1[nH]c(=O)c2cn[nH]c2[nH]1
REMARK SMILES IDX 1 1 2 2 11 3 10 4 6 5 7 6 8 7 9 8 4 9 5 10 3 11
REMARK H PARENT 11 12 9 13 3 14
REMARK Flexibility Score: inf
ROOT
ATOM      1  O   UNL     1      -2.717   1.605   0.371  1.00  0.00    -0.248 OA
ATOM      2  C   UNL     1      -1.709   0.864   0.218  1.00  0.00     0.327 A 
ATOM      3  N   UNL     1      -0.456   1.418   0.185  1.00  0.00    -0.292 N 
ATOM      4  C   UNL     1       0.604   0.590   0.019  1.00  0.00     0.142 A 
ATOM      5  C   UNL     1       0.464  -0.750  -0.114  1.00  0.00     0.102 A 
ATOM      6  C   UNL     1       1.745  -1.239  -0.260  1.00  0.00     0.151 A 
ATOM      7  N   UNL     1       2.604  -0.188  -0.210  1.00  0.00    -0.181 NA
ATOM      8  N   UNL     1       1.900   0.927  -0.039  1.00  0.00    -0.262 N 
ATOM      9  C   UNL     1      -0.798  -1.324  -0.084  1.00  0.00     0.264 A 
ATOM     10  O   UNL     1      -0.952  -2.568  -0.206  1.00  0.00    -0.269 OA
ATOM     11  N   UNL     1      -1.873  -0.495   0.084  1.00  0.00    -0.273 N 
ATOM     12  H   UNL     1      -0.318   2.449   0.286  1.00  0.00     0.173 HD
ATOM     13  H   UNL     1       2.307   1.885   0.034  1.00  0.00     0.192 HD
ATOM     14  H   UNL     1      -2.836  -0.902   0.110  1.00  0.00     0.175 HD
ENDROOT
TORSDOF 0
