REMARK SMILES COc1ncc(OC)c2c(C(=O)C(=O)N3CCN(C(=O)c4ccccc4)CC3)c[nH]c12
REMARK SMILES IDX 11 1 12 2 10 3 6 4 9 5 5 6 31 7 4 8 30 9 3 10 29 11 7 13
REMARK SMILES IDX 8 14 2 15 1 16 13 17 14 18 15 19 16 20 28 21 17 22 27 23
REMARK SMILES IDX 18 24 19 25 20 26 21 27 22 28 26 29 23 30 25 31 24 32
REMARK H PARENT 30 12
REMARK Flexibility Score: inf
ROOT
ATOM      1  C   UNL     1      -1.685   1.740   0.433  1.00  0.00     0.252 C 
ATOM      2  O   UNL     1      -1.252   2.863   0.060  1.00  0.00    -0.283 OA
ENDROOT
BRANCH   1   3
ATOM      3  C   UNL     1      -3.139   1.505   0.449  1.00  0.00     0.057 A 
ATOM      4  C   UNL     1      -3.451  -0.823  -0.552  1.00  0.00     0.147 A 
ATOM      5  C   UNL     1      -3.846   0.376   0.054  1.00  0.00     0.060 A 
ATOM      6  C   UNL     1      -4.472  -1.762  -0.833  1.00  0.00     0.162 A 
ATOM      7  C   UNL     1      -5.168   0.646   0.304  1.00  0.00     0.113 A 
ATOM      8  N   UNL     1      -5.780  -1.474  -0.548  1.00  0.00    -0.216 NA
ATOM      9  N   UNL     1      -5.330   1.878   0.815  1.00  0.00    -0.356 N 
ATOM     10  C   UNL     1      -6.159  -0.286   0.010  1.00  0.00     0.238 A 
ATOM     11  C   UNL     1      -4.093   2.413   0.896  1.00  0.00     0.096 A 
ATOM     12  H   UNL     1      -6.228   2.337   1.087  1.00  0.00     0.166 HD
BRANCH   4  13
ATOM     13  O   UNL     1      -2.106  -1.046  -0.878  1.00  0.00    -0.494 OA
ATOM     14  C   UNL     1      -1.613  -2.237  -1.481  1.00  0.00     0.278 C 
ENDBRANCH   4  13
BRANCH  10  15
ATOM     15  O   UNL     1      -7.501  -0.003   0.278  1.00  0.00    -0.479 OA
ATOM     16  C   UNL     1      -8.550  -0.922  -0.005  1.00  0.00     0.280 C 
ENDBRANCH  10  15
ENDBRANCH   1   3
BRANCH   1  17
ATOM     17  C   UNL     1      -0.735   0.725   0.927  1.00  0.00     0.295 C 
ATOM     18  O   UNL     1      -1.139  -0.160   1.730  1.00  0.00    -0.265 OA
ATOM     19  N   UNL     1       0.650   0.755   0.537  1.00  0.00    -0.332 N 
ATOM     20  C   UNL     1       1.670   0.234   1.454  1.00  0.00     0.141 C 
ATOM     21  C   UNL     1       1.010   0.873  -0.882  1.00  0.00     0.141 C 
ATOM     22  C   UNL     1       2.970   1.025   1.300  1.00  0.00     0.141 C 
ATOM     23  C   UNL     1       2.304   1.672  -1.033  1.00  0.00     0.141 C 
ATOM     24  N   UNL     1       3.324   1.149  -0.120  1.00  0.00    -0.335 N 
ATOM     25  C   UNL     1       4.709   1.200  -0.505  1.00  0.00     0.253 C 
ATOM     26  O   UNL     1       5.127   2.181  -1.180  1.00  0.00    -0.269 OA
BRANCH  25  27
ATOM     27  C   UNL     1       5.647   0.113  -0.139  1.00  0.00     0.040 A 
ATOM     28  C   UNL     1       7.033   0.352  -0.106  1.00  0.00     0.014 A 
ATOM     29  C   UNL     1       5.171  -1.179   0.149  1.00  0.00     0.014 A 
ATOM     30  C   UNL     1       7.920  -0.676   0.230  1.00  0.00     0.001 A 
ATOM     31  C   UNL     1       6.062  -2.203   0.484  1.00  0.00     0.001 A 
ATOM     32  C   UNL     1       7.435  -1.951   0.527  1.00  0.00     0.000 A 
ENDBRANCH  25  27
ENDBRANCH   1  17
TORSDOF 5
