REMARK SMILES C[C@]12CC[C@H](O)CC1=CC[C@@H]1[C@@H]2CC[C@]2(C)C(c3cccnc3)=CC[C@@H]12
REMARK SMILES IDX 26 1 25 2 24 3 17 4 15 5 16 6 14 7 13 8 12 9 11 10 10 11
REMARK SMILES IDX 9 12 8 13 7 14 5 15 4 16 3 17 2 18 1 19 18 20 19 21 23 22
REMARK SMILES IDX 20 23 22 24 21 25 6 26
REMARK H PARENT 6 27
REMARK Flexibility Score: inf
ROOT
ATOM      1  C   UNL     1       1.118   0.964   0.618  1.00  0.00     0.007 C 
ATOM      2  C   UNL     1       1.988   2.160   0.981  1.00  0.00     0.032 C 
ATOM      3  C   UNL     1       3.346   1.543   0.864  1.00  0.00    -0.022 C 
ATOM      4  C   UNL     1       3.324   0.402   0.161  1.00  0.00    -0.037 C 
ATOM      5  C   UNL     1       1.947   0.203  -0.429  1.00  0.00    -0.004 C 
ATOM      6  C   UNL     1       1.928   0.862  -1.843  1.00  0.00     0.017 C 
ATOM      7  C   UNL     1       1.392  -1.237  -0.472  1.00  0.00     0.012 C 
ATOM      8  C   UNL     1      -0.115  -1.233  -0.843  1.00  0.00     0.006 C 
ATOM      9  C   UNL     1      -0.990  -0.256   0.018  1.00  0.00     0.003 C 
ATOM     10  C   UNL     1      -0.348   1.157   0.196  1.00  0.00     0.001 C 
ATOM     11  C   UNL     1      -1.122   1.934   1.270  1.00  0.00     0.031 C 
ATOM     12  C   UNL     1      -2.609   1.891   1.056  1.00  0.00    -0.027 C 
ATOM     13  C   UNL     1      -3.244   0.896   0.396  1.00  0.00    -0.065 C 
ATOM     14  C   UNL     1      -4.761   0.916   0.351  1.00  0.00     0.063 C 
ATOM     15  C   UNL     1      -5.329  -0.494   0.562  1.00  0.00     0.118 C 
ATOM     16  C   UNL     1      -4.708  -1.494  -0.423  1.00  0.00     0.033 C 
ATOM     17  C   UNL     1      -3.180  -1.535  -0.269  1.00  0.00     0.014 C 
ATOM     18  C   UNL     1      -2.491  -0.146  -0.452  1.00  0.00    -0.008 C 
ATOM     19  C   UNL     1      -2.589   0.283  -1.942  1.00  0.00     0.016 C 
ENDROOT
BRANCH   4  20
ATOM     20  C   UNL     1       4.507  -0.494   0.015  1.00  0.00    -0.004 A 
ATOM     21  C   UNL     1       5.455  -0.590   1.050  1.00  0.00     0.011 A 
ATOM     22  C   UNL     1       4.709  -1.276  -1.137  1.00  0.00     0.119 A 
ATOM     23  C   UNL     1       6.559  -1.434   0.922  1.00  0.00     0.021 A 
ATOM     24  N   UNL     1       5.795  -2.089  -1.237  1.00  0.00    -0.264 NA
ATOM     25  C   UNL     1       6.714  -2.183  -0.242  1.00  0.00     0.111 A 
ENDBRANCH   4  20
BRANCH  15  26
ATOM     26  O   UNL     1      -6.730  -0.487   0.445  1.00  0.00    -0.393 OA
ATOM     27  H   UNL     1      -6.954  -0.205  -0.481  1.00  0.00     0.210 HD
ENDBRANCH  15  26
TORSDOF 2
