REMARK SMILES CC[C@H]1[C@@H](O)[C@@H]2[C@H](CC[C@]3(C)[C@@H]([C@H](C)CCC(=O)O)CC[C@@H]23)[C@@]2(C)CC[C@@H](O)C[C@@H]12
REMARK SMILES IDX 15 1 13 2 14 3 12 4 20 5 10 6 21 7 22 8 9 9 11 10 6 11 8 12
REMARK SMILES IDX 4 13 7 14 3 15 23 16 30 17 25 18 24 19 29 20 26 21 27 22
REMARK SMILES IDX 5 23 2 25 1 26 28 27 16 29 17 30 18 31 19 32
REMARK H PARENT 5 24 28 28 19 33
REMARK Flexibility Score: inf
ROOT
ATOM      1  C   UNL     1       5.487   0.852   0.215  1.00  0.00     0.015 C 
ENDROOT
BRANCH   1   2
ATOM      2  C   UNL     1       4.279   0.134   0.902  1.00  0.00    -0.010 C 
ATOM      3  C   UNL     1       4.267   0.487   2.400  1.00  0.00     0.008 C 
BRANCH   2   4
ATOM      4  C   UNL     1       2.928   0.494   0.191  1.00  0.00    -0.002 C 
ATOM      5  C   UNL     1       2.950   0.120  -1.319  1.00  0.00     0.005 C 
ATOM      6  C   UNL     1       1.608  -0.163   0.708  1.00  0.00    -0.026 C 
ATOM      7  C   UNL     1       1.523  -0.279  -1.714  1.00  0.00     0.005 C 
ATOM      8  C   UNL     1       0.689   0.094  -0.501  1.00  0.00     0.001 C 
ATOM      9  C   UNL     1       0.941   0.537   1.919  1.00  0.00     0.007 C 
ATOM     10  C   UNL     1       1.832  -1.681   1.005  1.00  0.00     0.012 C 
ATOM     11  C   UNL     1      -0.715  -0.536  -0.354  1.00  0.00     0.025 C 
ATOM     12  C   UNL     1      -0.494   0.015   2.169  1.00  0.00     0.005 C 
ATOM     13  C   UNL     1      -1.581  -0.386  -1.642  1.00  0.00     0.121 C 
ATOM     14  C   UNL     1      -1.418   0.070   0.908  1.00  0.00     0.001 C 
ATOM     15  C   UNL     1      -3.027  -0.912  -1.441  1.00  0.00     0.021 C 
ATOM     16  C   UNL     1      -2.856  -0.550   1.136  1.00  0.00    -0.026 C 
ATOM     17  C   UNL     1      -3.731  -0.343  -0.161  1.00  0.00     0.003 C 
ATOM     18  C   UNL     1      -3.596   0.095   2.355  1.00  0.00     0.010 C 
ATOM     19  C   UNL     1      -2.773  -2.071   1.467  1.00  0.00     0.012 C 
ATOM     20  C   UNL     1      -4.214   1.128  -0.338  1.00  0.00     0.036 C 
ATOM     21  C   UNL     1      -3.999   1.554   2.137  1.00  0.00     0.032 C 
ATOM     22  C   UNL     1      -4.916   1.664   0.916  1.00  0.00     0.114 C 
BRANCH  13  23
ATOM     23  O   UNL     1      -1.569   0.907  -2.208  1.00  0.00    -0.393 OA
ATOM     24  H   UNL     1      -1.440   1.582  -1.499  1.00  0.00     0.210 HD
ENDBRANCH  13  23
BRANCH  15  25
ATOM     25  C   UNL     1      -3.848  -0.767  -2.750  1.00  0.00     0.003 C 
ATOM     26  C   UNL     1      -5.208  -1.466  -2.691  1.00  0.00     0.004 C 
ENDBRANCH  15  25
BRANCH  22  27
ATOM     27  O   UNL     1      -5.329   2.995   0.724  1.00  0.00    -0.393 OA
ATOM     28  H   UNL     1      -4.516   3.546   0.576  1.00  0.00     0.210 HD
ENDBRANCH  22  27
ENDBRANCH   2   4
ENDBRANCH   1   2
BRANCH   1  29
ATOM     29  C   UNL     1       6.509  -0.149  -0.340  1.00  0.00     0.123 C 
BRANCH  29  30
ATOM     30  C   UNL     1       7.631   0.560  -1.029  1.00  0.00     0.303 C 
ATOM     31  O   UNL     1       7.469   1.014  -2.193  1.00  0.00    -0.252 OA
BRANCH  30  32
ATOM     32  O   UNL     1       8.848   0.735  -0.375  1.00  0.00    -0.481 OA
ATOM     33  H   UNL     1       9.613   1.222  -0.827  1.00  0.00     0.296 HD
ENDBRANCH  30  32
ENDBRANCH  29  30
ENDBRANCH   1  29
TORSDOF 8
