REMARK SMILES C#C[C@]1(O)CC[C@H]2[C@@H]3[C@@H](O)C=C4C[C@@H](O)CC[C@]4(C)[C@H]3CC[C@@]21C
REMARK SMILES IDX 7 1 6 2 5 3 3 4 23 5 24 6 22 7 21 8 20 9 8 10 9 11 11 12
REMARK SMILES IDX 12 13 13 14 14 15 16 16 17 17 18 18 19 19 4 20 2 22 1 23
REMARK SMILES IDX 10 24 15 26
REMARK H PARENT 4 21 10 25 15 27
REMARK Flexibility Score: inf
ROOT
ATOM      1  C   UNL     1      -1.797  -0.654   0.450  1.00  0.00     0.005 C 
ATOM      2  C   UNL     1      -2.647  -1.878   0.770  1.00  0.00     0.009 C 
ATOM      3  C   UNL     1      -4.089  -1.449   0.438  1.00  0.00     0.050 C 
ATOM      4  C   UNL     1      -4.007  -0.056  -0.242  1.00  0.00     0.130 C 
ATOM      5  C   UNL     1      -2.521   0.026  -0.722  1.00  0.00     0.011 C 
ATOM      6  C   UNL     1      -2.380  -0.754  -2.073  1.00  0.00     0.016 C 
ATOM      7  C   UNL     1      -1.922   1.447  -0.886  1.00  0.00     0.011 C 
ATOM      8  C   UNL     1      -0.395   1.393  -1.123  1.00  0.00     0.005 C 
ATOM      9  C   UNL     1       0.367   0.548  -0.049  1.00  0.00     0.005 C 
ATOM     10  C   UNL     1      -0.283  -0.851   0.201  1.00  0.00     0.029 C 
ATOM     11  C   UNL     1       0.393  -1.570   1.400  1.00  0.00     0.141 C 
ATOM     12  C   UNL     1       1.855  -1.229   1.606  1.00  0.00     0.004 C 
ATOM     13  C   UNL     1       2.527  -0.279   0.917  1.00  0.00    -0.063 C 
ATOM     14  C   UNL     1       3.798   0.270   1.538  1.00  0.00     0.063 C 
ATOM     15  C   UNL     1       4.775   0.877   0.514  1.00  0.00     0.118 C 
ATOM     16  C   UNL     1       4.104   1.760  -0.566  1.00  0.00     0.033 C 
ATOM     17  C   UNL     1       2.565   1.791  -0.505  1.00  0.00     0.014 C 
ATOM     18  C   UNL     1       1.910   0.392  -0.312  1.00  0.00    -0.008 C 
ATOM     19  C   UNL     1       2.193  -0.492  -1.560  1.00  0.00     0.016 C 
ENDROOT
BRANCH   4  20
ATOM     20  O   UNL     1      -4.924   0.010  -1.309  1.00  0.00    -0.377 OA
ATOM     21  H   UNL     1      -4.806   0.893  -1.748  1.00  0.00     0.212 HD
ENDBRANCH   4  20
BRANCH   4  22
ATOM     22  C   UNL     1      -4.354   0.989   0.754  1.00  0.00    -0.071 C 
ATOM     23  C   UNL     1      -4.638   1.836   1.564  1.00  0.00     0.007 C 
ENDBRANCH   4  22
BRANCH  11  24
ATOM     24  O   UNL     1       0.261  -2.960   1.243  1.00  0.00    -0.389 OA
ATOM     25  H   UNL     1       0.359  -3.365   2.144  1.00  0.00     0.211 HD
ENDBRANCH  11  24
BRANCH  15  26
ATOM     26  O   UNL     1       5.577  -0.117  -0.077  1.00  0.00    -0.393 OA
ATOM     27  H   UNL     1       4.981  -0.841  -0.400  1.00  0.00     0.210 HD
ENDBRANCH  15  26
TORSDOF 4
