REMARK SMILES CCC[C@H](NC(=O)[C@@H]1[C@H]2CCC[C@H]2CN1C(=O)[C@@H](NC(=O)[C@@H](NC(=O)c1cnccn1)C1CCCCC1)C(C)(C)C)C(=O)C(=O)NC1CC1
REMARK SMILES IDX 13 1 12 2 11 3 10 4 9 5 8 6 15 7 14 8 6 9 7 10 5 11 4 13
REMARK SMILES IDX 3 14 2 15 1 16 42 17 43 18 44 19 45 20 46 21 47 23 48 24
REMARK SMILES IDX 49 25 16 26 17 27 18 28 19 29 20 30 21 32 22 33 23 34 24 35
REMARK SMILES IDX 25 37 26 38 31 39 27 40 30 41 28 42 29 43 32 44 33 45 37 46
REMARK SMILES IDX 34 47 36 48 35 49 38 50 39 51 40 52 41 53
REMARK H PARENT 5 12 46 22 19 31 23 36
REMARK Flexibility Score: inf
ROOT
ATOM      1  C   UNL     1      -3.121   1.801   0.652  1.00  0.00     0.014 C 
ATOM      2  C   UNL     1      -3.401   3.057   1.466  1.00  0.00     0.006 C 
ATOM      3  C   UNL     1      -3.300   2.658   2.933  1.00  0.00     0.001 C 
ATOM      4  C   UNL     1      -3.231   1.132   2.984  1.00  0.00     0.006 C 
ATOM      5  C   UNL     1      -3.476   0.627   1.552  1.00  0.00     0.026 C 
ATOM      6  C   UNL     1      -2.500  -0.485   1.136  1.00  0.00     0.177 C 
ATOM      7  N   UNL     1      -1.303   0.244   0.712  1.00  0.00    -0.328 N 
ATOM      8  C   UNL     1      -1.639   1.604   0.298  1.00  0.00     0.124 C 
ENDROOT
BRANCH   6   9
ATOM      9  C   UNL     1      -2.981  -1.346  -0.020  1.00  0.00     0.243 C 
ATOM     10  O   UNL     1      -2.256  -2.302  -0.406  1.00  0.00    -0.273 OA
ATOM     11  N   UNL     1      -4.227  -1.109  -0.695  1.00  0.00    -0.344 N 
ATOM     12  H   UNL     1      -5.094  -0.958  -0.137  1.00  0.00     0.164 HD
BRANCH  11  13
ATOM     13  C   UNL     1      -4.306  -1.034  -2.155  1.00  0.00     0.159 C 
BRANCH  13  14
ATOM     14  C   UNL     1      -5.405  -1.969  -2.695  1.00  0.00     0.033 C 
BRANCH  14  15
ATOM     15  C   UNL     1      -5.050  -3.448  -2.485  1.00  0.00    -0.001 C 
ATOM     16  C   UNL     1      -6.134  -4.363  -3.052  1.00  0.00     0.004 C 
ENDBRANCH  14  15
ENDBRANCH  13  14
BRANCH  13  17
ATOM     17  C   UNL     1      -4.540   0.397  -2.595  1.00  0.00     0.242 C 
ATOM     18  O   UNL     1      -3.697   0.940  -3.362  1.00  0.00    -0.286 OA
BRANCH  17  19
ATOM     19  C   UNL     1      -5.709   1.191  -2.146  1.00  0.00     0.289 C 
ATOM     20  O   UNL     1      -6.589   0.661  -1.417  1.00  0.00    -0.266 OA
ATOM     21  N   UNL     1      -5.846   2.565  -2.535  1.00  0.00    -0.347 N 
ATOM     22  H   UNL     1      -5.152   2.983  -3.190  1.00  0.00     0.164 HD
BRANCH  21  23
ATOM     23  C   UNL     1      -6.848   3.427  -1.905  1.00  0.00     0.082 C 
ATOM     24  C   UNL     1      -6.236   4.487  -1.004  1.00  0.00     0.027 C 
ATOM     25  C   UNL     1      -6.813   4.880  -2.354  1.00  0.00     0.027 C 
ENDBRANCH  21  23
ENDBRANCH  17  19
ENDBRANCH  13  17
ENDBRANCH  11  13
ENDBRANCH   6   9
BRANCH   7  26
ATOM     26  C   UNL     1      -0.017  -0.045   1.287  1.00  0.00     0.246 C 
ATOM     27  O   UNL     1       0.480   0.764   2.120  1.00  0.00    -0.272 OA
BRANCH  26  28
ATOM     28  C   UNL     1       0.787  -1.240   0.828  1.00  0.00     0.177 C 
BRANCH  28  29
ATOM     29  N   UNL     1       1.894  -0.849  -0.067  1.00  0.00    -0.342 N 
ATOM     30  C   UNL     1       2.581   0.409  -0.050  1.00  0.00     0.243 C 
ATOM     31  H   UNL     1       2.081  -1.463  -0.887  1.00  0.00     0.164 HD
ATOM     32  O   UNL     1       1.922   1.476  -0.169  1.00  0.00    -0.273 OA
BRANCH  30  33
ATOM     33  C   UNL     1       4.095   0.447   0.051  1.00  0.00     0.174 C 
BRANCH  33  34
ATOM     34  N   UNL     1       4.654  -0.633  -0.768  1.00  0.00    -0.339 N 
ATOM     35  C   UNL     1       5.352  -1.757  -0.208  1.00  0.00     0.272 C 
ATOM     36  H   UNL     1       4.519  -0.576  -1.804  1.00  0.00     0.164 HD
ATOM     37  O   UNL     1       5.317  -1.962   1.035  1.00  0.00    -0.267 OA
BRANCH  35  38
ATOM     38  C   UNL     1       6.131  -2.659  -1.073  1.00  0.00     0.146 A 
ATOM     39  N   UNL     1       6.295  -2.362  -2.392  1.00  0.00    -0.248 NA
ATOM     40  C   UNL     1       6.745  -3.811  -0.558  1.00  0.00     0.145 A 
ATOM     41  C   UNL     1       7.032  -3.153  -3.211  1.00  0.00     0.132 A 
ATOM     42  N   UNL     1       7.484  -4.600  -1.381  1.00  0.00    -0.261 NA
ATOM     43  C   UNL     1       7.644  -4.295  -2.693  1.00  0.00     0.131 A 
ENDBRANCH  35  38
ENDBRANCH  33  34
BRANCH  33  44
ATOM     44  C   UNL     1       4.699   1.826  -0.376  1.00  0.00     0.021 C 
ATOM     45  C   UNL     1       4.350   2.956   0.650  1.00  0.00     0.006 C 
ATOM     46  C   UNL     1       6.230   1.762  -0.613  1.00  0.00     0.006 C 
ATOM     47  C   UNL     1       5.545   3.418   1.508  1.00  0.00     0.000 C 
ATOM     48  C   UNL     1       7.017   1.503   0.688  1.00  0.00     0.000 C 
ATOM     49  C   UNL     1       6.431   2.235   1.914  1.00  0.00     0.000 C 
ENDBRANCH  33  44
ENDBRANCH  30  33
ENDBRANCH  28  29
BRANCH  28  50
ATOM     50  C   UNL     1       1.276  -2.173   1.998  1.00  0.00    -0.009 C 
ATOM     51  C   UNL     1       2.009  -3.396   1.399  1.00  0.00     0.013 C 
ATOM     52  C   UNL     1       0.063  -2.693   2.803  1.00  0.00     0.013 C 
ATOM     53  C   UNL     1       2.236  -1.445   2.975  1.00  0.00     0.013 C 
ENDBRANCH  28  50
ENDBRANCH  26  28
ENDBRANCH   7  26
TORSDOF 15
