REMARK SMILES CCOC(=O)COc1ccc2c(c1)C[C@@H](NC[C@H](O)c1cccc(Cl)c1)CC2
REMARK SMILES IDX 15 1 27 2 28 3 11 4 12 5 14 6 13 7 8 8 9 9 10 10 16 11 17 13
REMARK SMILES IDX 18 14 19 15 20 17 26 18 21 19 24 20 22 21 25 22 23 23 7 24
REMARK SMILES IDX 6 25 4 26 5 27 3 28 2 29 1 30
REMARK H PARENT 16 12 19 16
REMARK Flexibility Score: inf
ROOT
ATOM      1  C   UNL     1       1.949  -1.677  -0.688  1.00  0.00     0.058 C 
ATOM      2  C   UNL     1       1.558  -3.024  -1.312  1.00  0.00     0.024 C 
ATOM      3  C   UNL     1       0.481  -2.830  -2.385  1.00  0.00     0.037 C 
ATOM      4  C   UNL     1      -0.655  -1.947  -1.924  1.00  0.00    -0.044 A 
ATOM      5  C   UNL     1      -0.511  -1.069  -0.825  1.00  0.00    -0.040 A 
ATOM      6  C   UNL     1       0.725  -1.089   0.041  1.00  0.00     0.054 C 
ATOM      7  C   UNL     1      -1.576  -0.225  -0.469  1.00  0.00     0.050 A 
ATOM      8  C   UNL     1      -2.767  -0.217  -1.219  1.00  0.00     0.120 A 
ATOM      9  C   UNL     1      -2.887  -1.071  -2.319  1.00  0.00     0.047 A 
ATOM     10  C   UNL     1      -1.841  -1.926  -2.672  1.00  0.00     0.008 A 
ENDROOT
BRANCH   1  11
ATOM     11  N   UNL     1       3.069  -1.869   0.256  1.00  0.00    -0.311 NA
ATOM     12  H   UNL     1       3.008  -1.209   1.066  1.00  0.00     0.123 HD
BRANCH  11  13
ATOM     13  C   UNL     1       4.399  -1.758  -0.376  1.00  0.00     0.117 C 
BRANCH  13  14
ATOM     14  C   UNL     1       4.823  -0.302  -0.704  1.00  0.00     0.158 C 
BRANCH  14  15
ATOM     15  O   UNL     1       6.126  -0.301  -1.230  1.00  0.00    -0.387 OA
ATOM     16  H   UNL     1       6.066  -0.654  -2.156  1.00  0.00     0.211 HD
ENDBRANCH  14  15
BRANCH  14  17
ATOM     17  C   UNL     1       4.787   0.583   0.523  1.00  0.00    -0.017 A 
ATOM     18  C   UNL     1       3.741   1.509   0.696  1.00  0.00     0.027 A 
ATOM     19  C   UNL     1       5.756   0.448   1.534  1.00  0.00     0.006 A 
ATOM     20  C   UNL     1       3.673   2.291   1.855  1.00  0.00     0.041 A 
ATOM     21  C   UNL     1       5.685   1.234   2.690  1.00  0.00     0.002 A 
ATOM     22  Cl  UNL     1       2.356   3.430   2.065  1.00  0.00    -0.084 Cl
ATOM     23  C   UNL     1       4.646   2.153   2.850  1.00  0.00     0.020 A 
ENDBRANCH  14  17
ENDBRANCH  13  14
ENDBRANCH  11  13
ENDBRANCH   1  11
BRANCH   8  24
ATOM     24  O   UNL     1      -3.847   0.621  -0.907  1.00  0.00    -0.482 OA
BRANCH  24  25
ATOM     25  C   UNL     1      -3.874   1.525   0.195  1.00  0.00     0.351 C 
BRANCH  25  26
ATOM     26  C   UNL     1      -5.179   2.250   0.222  1.00  0.00     0.344 C 
ATOM     27  O   UNL     1      -5.237   3.407   0.719  1.00  0.00    -0.248 OA
BRANCH  26  28
ATOM     28  O   UNL     1      -6.333   1.620  -0.260  1.00  0.00    -0.463 OA
BRANCH  28  29
ATOM     29  C   UNL     1      -7.632   2.206  -0.195  1.00  0.00     0.229 C 
ATOM     30  C   UNL     1      -8.198   2.102   1.216  1.00  0.00     0.049 C 
ENDBRANCH  28  29
ENDBRANCH  26  28
ENDBRANCH  25  26
ENDBRANCH  24  25
ENDBRANCH   8  24
TORSDOF 10
