REMARK SMILES CN(C)CCN1C(=O)c2cccc3cc(N)cc(c23)C1=O
REMARK SMILES IDX 5 1 4 2 2 3 1 4 3 5 6 6 7 7 20 8 8 9 9 10 18 11 21 12 10 13
REMARK SMILES IDX 19 14 17 15 11 16 13 17 15 18 12 19 14 20 16 21
REMARK H PARENT 16 22 16 23
REMARK Flexibility Score: inf
ROOT
ATOM      1  C   UNL     1      -2.132   0.759  -1.697  1.00  0.00     0.145 C 
ENDROOT
BRANCH   1   2
ATOM      2  C   UNL     1      -3.002   1.176  -0.505  1.00  0.00     0.106 C 
BRANCH   2   3
ATOM      3  N   UNL     1      -3.168   0.055   0.446  1.00  0.00    -0.308 NA
ATOM      4  C   UNL     1      -4.305  -0.800   0.062  1.00  0.00     0.105 C 
ATOM      5  C   UNL     1      -3.375   0.563   1.812  1.00  0.00     0.105 C 
ENDBRANCH   2   3
ENDBRANCH   1   2
BRANCH   1   6
ATOM      6  N   UNL     1      -0.799   0.327  -1.246  1.00  0.00    -0.273 N 
ATOM      7  C   UNL     1      -0.518  -1.067  -1.014  1.00  0.00     0.261 C 
ATOM      8  C   UNL     1       0.216   1.303  -0.944  1.00  0.00     0.261 C 
ATOM      9  O   UNL     1      -1.393  -1.941  -1.268  1.00  0.00    -0.269 OA
ATOM     10  C   UNL     1       0.799  -1.478  -0.477  1.00  0.00     0.049 A 
ATOM     11  C   UNL     1       1.528   0.869  -0.410  1.00  0.00     0.051 A 
ATOM     12  O   UNL     1      -0.011   2.530  -1.134  1.00  0.00    -0.269 OA
ATOM     13  C   UNL     1       1.084  -2.835  -0.245  1.00  0.00     0.014 A 
ATOM     14  C   UNL     1       1.781  -0.503  -0.191  1.00  0.00     0.007 A 
ATOM     15  C   UNL     1       2.526   1.814  -0.114  1.00  0.00     0.040 A 
ATOM     16  C   UNL     1       2.324  -3.224   0.262  1.00  0.00     0.001 A 
ATOM     17  C   UNL     1       3.039  -0.908   0.324  1.00  0.00    -0.015 A 
ATOM     18  C   UNL     1       3.766   1.410   0.394  1.00  0.00     0.033 A 
ATOM     19  C   UNL     1       3.299  -2.268   0.546  1.00  0.00     0.009 A 
ATOM     20  C   UNL     1       4.020   0.052   0.611  1.00  0.00     0.034 A 
BRANCH  18  21
ATOM     21  N   UNL     1       4.772   2.384   0.689  1.00  0.00    -0.399 N 
ATOM     22  H   UNL     1       5.701   2.095   1.069  1.00  0.00     0.156 HD
ATOM     23  H   UNL     1       4.595   3.401   0.531  1.00  0.00     0.156 HD
ENDBRANCH  18  21
ENDBRANCH   1   6
TORSDOF 4
