REMARK SMILES COc1cc(N)c(Cl)cc1C(=O)N[C@@H]1CCN(CCCCCC(=O)O[C@H]2CN3CCC2CC3)C[C@@H]1OC
REMARK SMILES IDX 19 1 18 2 17 3 35 4 34 5 14 6 15 7 16 8 36 9 37 10 13 11
REMARK SMILES IDX 11 12 12 14 10 15 3 16 9 17 4 18 7 19 5 20 8 21 2 22 1 23
REMARK SMILES IDX 6 24 20 27 21 28 22 29 23 30 24 31 25 32 26 33 27 34 31 35
REMARK SMILES IDX 28 36 30 37 32 38 29 39 33 40
REMARK H PARENT 13 13 6 25 6 26
REMARK Flexibility Score: inf
ROOT
ATOM      1  C   UNL     1       1.399  -1.094   0.820  1.00  0.00     0.016 C 
ENDROOT
BRANCH   1   2
ATOM      2  C   UNL     1       0.242  -0.808  -0.150  1.00  0.00     0.084 C 
BRANCH   2   3
ATOM      3  N   UNL     1      -0.888  -1.743   0.061  1.00  0.00    -0.301 NA
ATOM      4  C   UNL     1      -2.789  -2.938  -1.006  1.00  0.00     0.154 C 
ATOM      5  C   UNL     1      -1.667  -1.897  -1.186  1.00  0.00     0.118 C 
ATOM      6  C   UNL     1      -3.715  -2.550   0.169  1.00  0.00     0.113 C 
ATOM      7  C   UNL     1      -2.874  -2.291   1.431  1.00  0.00     0.043 C 
ATOM      8  C   UNL     1      -1.765  -1.271   1.155  1.00  0.00     0.087 C 
BRANCH   4   9
ATOM      9  O   UNL     1      -3.556  -3.023  -2.197  1.00  0.00    -0.378 OA
ATOM     10  C   UNL     1      -3.207  -4.171  -2.939  1.00  0.00     0.195 C 
ENDBRANCH   4   9
BRANCH   6  11
ATOM     11  N   UNL     1      -4.538  -1.375  -0.158  1.00  0.00    -0.346 N 
ATOM     12  C   UNL     1      -5.664  -0.975   0.639  1.00  0.00     0.255 C 
ATOM     13  H   UNL     1      -4.374  -0.864  -1.053  1.00  0.00     0.164 HD
ATOM     14  O   UNL     1      -6.113  -1.751   1.529  1.00  0.00    -0.269 OA
BRANCH  12  15
ATOM     15  C   UNL     1      -6.334   0.324   0.398  1.00  0.00     0.083 A 
ATOM     16  C   UNL     1      -5.596   1.478   0.059  1.00  0.00     0.133 A 
ATOM     17  C   UNL     1      -7.731   0.407   0.517  1.00  0.00     0.040 A 
ATOM     18  C   UNL     1      -6.280   2.683  -0.199  1.00  0.00     0.074 A 
ATOM     19  C   UNL     1      -8.402   1.607   0.267  1.00  0.00     0.065 A 
ATOM     20  C   UNL     1      -7.676   2.755  -0.099  1.00  0.00     0.054 A 
ATOM     21  Cl  UNL     1     -10.155   1.628   0.416  1.00  0.00    -0.082 Cl
BRANCH  16  22
ATOM     22  O   UNL     1      -4.194   1.406   0.013  1.00  0.00    -0.496 OA
ATOM     23  C   UNL     1      -3.334   2.478  -0.363  1.00  0.00     0.278 C 
ENDBRANCH  16  22
BRANCH  20  24
ATOM     24  N   UNL     1      -8.334   4.000  -0.367  1.00  0.00    -0.397 N 
ATOM     25  H   UNL     1      -7.782   4.842  -0.640  1.00  0.00     0.156 HD
ATOM     26  H   UNL     1      -9.370   4.106  -0.292  1.00  0.00     0.156 HD
ENDBRANCH  20  24
ENDBRANCH  12  15
ENDBRANCH   6  11
ENDBRANCH   2   3
ENDBRANCH   1   2
BRANCH   1  27
ATOM     27  C   UNL     1       1.967  -2.512   0.634  1.00  0.00     0.002 C 
BRANCH  27  28
ATOM     28  C   UNL     1       3.022  -2.880   1.694  1.00  0.00     0.012 C 
BRANCH  28  29
ATOM     29  C   UNL     1       4.431  -2.344   1.388  1.00  0.00     0.123 C 
BRANCH  29  30
ATOM     30  C   UNL     1       4.573  -0.879   1.667  1.00  0.00     0.306 C 
ATOM     31  O   UNL     1       4.309  -0.429   2.816  1.00  0.00    -0.252 OA
BRANCH  30  32
ATOM     32  O   UNL     1       5.035  -0.030   0.655  1.00  0.00    -0.461 OA
BRANCH  32  33
ATOM     33  C   UNL     1       5.227   1.377   0.831  1.00  0.00     0.193 C 
ATOM     34  C   UNL     1       6.389   1.668   1.830  1.00  0.00     0.130 C 
ATOM     35  C   UNL     1       5.566   2.030  -0.528  1.00  0.00     0.034 C 
ATOM     36  N   UNL     1       7.442   2.507   1.204  1.00  0.00    -0.300 NA
ATOM     37  C   UNL     1       5.728   3.545  -0.302  1.00  0.00     0.023 C 
ATOM     38  C   UNL     1       6.922   1.480  -1.020  1.00  0.00     0.023 C 
ATOM     39  C   UNL     1       6.846   3.788   0.746  1.00  0.00     0.085 C 
ATOM     40  C   UNL     1       8.012   1.786   0.039  1.00  0.00     0.085 C 
ENDBRANCH  32  33
ENDBRANCH  30  32
ENDBRANCH  29  30
ENDBRANCH  28  29
ENDBRANCH  27  28
ENDBRANCH   1  27
TORSDOF 13
