REMARK SMILES CC1(C)CCC(C)(C)c2cc(Cn3cccn3)c(/C=C/c3ccc(C(=O)O)cc3)cc21
REMARK SMILES IDX 19 1 20 2 18 3 7 4 6 5 8 6 5 7 9 8 4 9 31 10 10 11 2 12
REMARK SMILES IDX 30 13 11 14 1 15 3 16 12 17 13 18 14 19 17 20 15 21 16 22
REMARK SMILES IDX 21 23 22 24 29 25 23 26 28 27 24 28 25 29 26 30 27 31
REMARK H PARENT 27 32
REMARK Flexibility Score: inf
ROOT
ATOM      1  C   UNL     1       1.592  -0.071  -0.586  1.00  0.00     0.009 C 
ATOM      2  C   UNL     1       2.167   0.291   0.571  1.00  0.00     0.009 C 
ENDROOT
BRANCH   1   3
ATOM      3  C   UNL     1       0.121  -0.058  -0.768  1.00  0.00    -0.020 A 
ATOM      4  C   UNL     1      -4.790  -1.409  -0.666  1.00  0.00     0.016 C 
ATOM      5  C   UNL     1      -4.234  -0.055  -1.176  1.00  0.00    -0.010 C 
ATOM      6  C   UNL     1      -4.609   0.105  -2.668  1.00  0.00     0.016 C 
ATOM      7  C   UNL     1      -4.919   1.052  -0.336  1.00  0.00     0.012 C 
ATOM      8  C   UNL     1      -2.704  -0.005  -1.036  1.00  0.00    -0.038 A 
ATOM      9  C   UNL     1      -4.228   2.402  -0.491  1.00  0.00     0.012 C 
ATOM     10  C   UNL     1      -2.022   1.117  -0.484  1.00  0.00    -0.038 A 
ATOM     11  C   UNL     1      -1.939  -1.081  -1.537  1.00  0.00     0.010 A 
ATOM     12  C   UNL     1      -2.762   2.372   0.009  1.00  0.00    -0.010 C 
ATOM     13  C   UNL     1      -0.623   1.043  -0.318  1.00  0.00     0.013 A 
ATOM     14  C   UNL     1      -0.543  -1.116  -1.421  1.00  0.00    -0.019 A 
ATOM     15  C   UNL     1      -2.080   3.657  -0.525  1.00  0.00     0.016 C 
ATOM     16  C   UNL     1      -2.730   2.400   1.556  1.00  0.00     0.016 C 
BRANCH  14  17
ATOM     17  C   UNL     1       0.198  -2.342  -1.910  1.00  0.00     0.180 C 
BRANCH  17  18
ATOM     18  N   UNL     1       0.652  -3.142  -0.774  1.00  0.00    -0.268 N 
ATOM     19  C   UNL     1       1.932  -3.383  -0.431  1.00  0.00     0.109 A 
ATOM     20  N   UNL     1      -0.165  -3.726   0.089  1.00  0.00    -0.181 NA
ATOM     21  C   UNL     1       1.936  -4.154   0.711  1.00  0.00     0.042 A 
ATOM     22  C   UNL     1       0.599  -4.351   1.007  1.00  0.00     0.135 A 
ENDBRANCH  17  18
ENDBRANCH  14  17
ENDBRANCH   1   3
BRANCH   2  23
ATOM     23  C   UNL     1       3.632   0.294   0.815  1.00  0.00    -0.026 A 
ATOM     24  C   UNL     1       4.551  -0.374  -0.018  1.00  0.00     0.009 A 
ATOM     25  C   UNL     1       4.118   0.975   1.943  1.00  0.00     0.009 A 
ATOM     26  C   UNL     1       5.920  -0.340   0.264  1.00  0.00     0.016 A 
ATOM     27  C   UNL     1       5.486   1.010   2.223  1.00  0.00     0.016 A 
ATOM     28  C   UNL     1       6.402   0.355   1.385  1.00  0.00     0.059 A 
BRANCH  28  29
ATOM     29  C   UNL     1       7.851   0.399   1.683  1.00  0.00     0.335 C 
ATOM     30  O   UNL     1       8.675  -0.188   0.929  1.00  0.00    -0.246 OA
BRANCH  29  31
ATOM     31  O   UNL     1       8.319   1.093   2.796  1.00  0.00    -0.478 OA
ATOM     32  H   UNL     1       9.309   1.132   3.006  1.00  0.00     0.297 HD
ENDBRANCH  29  31
ENDBRANCH  28  29
ENDBRANCH   2  23
TORSDOF 6
