REMARK SMILES CCc1c2c(nc3ccc(O)cc13)-c1cc3c(c(=O)n1C2)COC(=O)[C@]3(O)CC
REMARK SMILES IDX 3 1 13 2 12 3 10 4 9 5 8 6 7 7 6 8 5 9 4 10 21 11 20 12
REMARK SMILES IDX 14 13 15 14 16 15 17 16 22 17 23 18 24 19 25 20 26 21 18 22
REMARK SMILES IDX 19 23 2 24 1 25 11 26 27 28 28 30 29 31
REMARK H PARENT 11 27 27 29
REMARK Flexibility Score: inf
ROOT
ATOM      1  C   UNL     1       2.970   0.060   0.745  1.00  0.00    -0.031 A 
ATOM      2  C   UNL     1       3.412   0.665  -0.471  1.00  0.00     0.007 A 
ATOM      3  C   UNL     1       4.778   0.862  -0.769  1.00  0.00     0.056 A 
ATOM      4  C   UNL     1       5.167   1.465  -1.974  1.00  0.00     0.116 A 
ATOM      5  C   UNL     1       4.201   1.877  -2.895  1.00  0.00     0.048 A 
ATOM      6  C   UNL     1       2.846   1.686  -2.629  1.00  0.00     0.033 A 
ATOM      7  C   UNL     1       2.439   1.084  -1.434  1.00  0.00     0.072 A 
ATOM      8  N   UNL     1       1.109   0.894  -1.205  1.00  0.00    -0.246 NA
ATOM      9  C   UNL     1       0.710   0.305  -0.055  1.00  0.00     0.093 A 
ATOM     10  C   UNL     1       1.588  -0.115   0.910  1.00  0.00     0.004 A 
ATOM     11  C   UNL     1       0.815  -0.739   2.043  1.00  0.00     0.164 C 
ATOM     12  N   UNL     1      -0.575  -0.619   1.583  1.00  0.00    -0.302 N 
ATOM     13  C   UNL     1      -0.625  -0.015   0.380  1.00  0.00     0.071 A 
ATOM     14  C   UNL     1      -1.832   0.232  -0.261  1.00  0.00     0.036 A 
ATOM     15  C   UNL     1      -3.030  -0.188   0.357  1.00  0.00     0.009 A 
ATOM     16  C   UNL     1      -2.959  -0.802   1.639  1.00  0.00     0.062 A 
ATOM     17  C   UNL     1      -4.216  -1.096   2.412  1.00  0.00     0.275 C 
ATOM     18  O   UNL     1      -5.321  -1.322   1.551  1.00  0.00    -0.458 OA
ATOM     19  C   UNL     1      -5.526  -0.580   0.391  1.00  0.00     0.343 C 
ATOM     20  O   UNL     1      -6.696  -0.479  -0.065  1.00  0.00    -0.248 OA
ATOM     21  C   UNL     1      -4.372   0.087  -0.337  1.00  0.00     0.187 C 
ATOM     22  C   UNL     1      -1.697  -1.004   2.245  1.00  0.00     0.258 A 
ATOM     23  O   UNL     1      -1.606  -1.524   3.391  1.00  0.00    -0.269 OA
ENDROOT
BRANCH   1  24
ATOM     24  C   UNL     1       3.919  -0.438   1.816  1.00  0.00     0.033 C 
ATOM     25  C   UNL     1       4.447  -1.828   1.474  1.00  0.00     0.009 C 
ENDBRANCH   1  24
BRANCH   4  26
ATOM     26  O   UNL     1       6.515   1.660  -2.265  1.00  0.00    -0.508 OA
ATOM     27  H   UNL     1       7.244   1.375  -1.622  1.00  0.00     0.293 HD
ENDBRANCH   4  26
BRANCH  21  28
ATOM     28  O   UNL     1      -4.601   1.478  -0.342  1.00  0.00    -0.374 OA
ATOM     29  H   UNL     1      -4.610   1.791   0.602  1.00  0.00     0.212 HD
ENDBRANCH  21  28
BRANCH  21  30
ATOM     30  C   UNL     1      -4.339  -0.467  -1.808  1.00  0.00     0.049 C 
ATOM     31  C   UNL     1      -4.312   0.614  -2.894  1.00  0.00     0.008 C 
ENDBRANCH  21  30
TORSDOF 4
