REMARK SMILES CN1C(=O)CC(C)(c2ccccc2)C1=O
REMARK SMILES IDX 1 1 2 2 3 3 4 4 5 5 6 6 7 7 14 8 15 9 8 10 9 11 13 12 10 13
REMARK SMILES IDX 12 14 11 15
REMARK H PARENT
REMARK Flexibility Score: inf
ROOT
ATOM      1  C   UNL     1      -3.658   1.123  -0.278  1.00  0.00     0.156 C 
ATOM      2  N   UNL     1      -2.353   0.616   0.131  1.00  0.00    -0.285 N 
ATOM      3  C   UNL     1      -2.031   0.134   1.422  1.00  0.00     0.230 C 
ATOM      4  O   UNL     1      -2.752   0.347   2.432  1.00  0.00    -0.274 OA
ATOM      5  C   UNL     1      -0.771  -0.662   1.460  1.00  0.00     0.122 C 
ATOM      6  C   UNL     1      -0.290  -0.695  -0.026  1.00  0.00     0.081 C 
ATOM      7  C   UNL     1      -0.284  -2.138  -0.574  1.00  0.00     0.027 C 
ATOM      8  C   UNL     1      -1.373   0.080  -0.740  1.00  0.00     0.239 C 
ATOM      9  O   UNL     1      -1.446   0.193  -1.994  1.00  0.00    -0.273 OA
ENDROOT
BRANCH   6  10
ATOM     10  C   UNL     1       1.105  -0.063  -0.151  1.00  0.00    -0.032 A 
ATOM     11  C   UNL     1       2.202  -0.682   0.486  1.00  0.00     0.005 A 
ATOM     12  C   UNL     1       1.337   1.147  -0.848  1.00  0.00     0.005 A 
ATOM     13  C   UNL     1       3.484  -0.131   0.405  1.00  0.00     0.000 A 
ATOM     14  C   UNL     1       2.622   1.691  -0.924  1.00  0.00     0.000 A 
ATOM     15  C   UNL     1       3.695   1.052  -0.303  1.00  0.00     0.000 A 
ENDBRANCH   6  10
TORSDOF 1
