REMARK SMILES O=C(c1ccc(F)c(F)c1Nc1ccc(I)cc1F)N1CC(O)([C@@H]2CCCCN2)C1
REMARK SMILES IDX 3 1 10 2 8 3 9 4 6 5 7 6 5 7 4 8 2 9 22 10 21 11 30 12 20 13
REMARK SMILES IDX 1 14 23 15 24 17 25 18 29 19 26 20 28 21 27 23 11 24 12 26
REMARK SMILES IDX 18 27 13 28 19 29 17 30 14 31 15 32 16 33
REMARK H PARENT 23 16 29 22 11 25
REMARK Flexibility Score: inf
ROOT
ATOM      1  C   UNL     1       1.587   2.548   0.543  1.00  0.00     0.066 A 
ATOM      2  C   UNL     1       2.841   2.114   1.032  1.00  0.00     0.091 A 
ATOM      3  C   UNL     1       3.325   2.606   2.253  1.00  0.00     0.183 A 
ATOM      4  F   UNL     1       4.527   2.188   2.728  1.00  0.00    -0.201 F 
ATOM      5  C   UNL     1       2.560   3.504   3.003  1.00  0.00     0.161 A 
ATOM      6  F   UNL     1       3.025   3.969   4.190  1.00  0.00    -0.204 F 
ATOM      7  C   UNL     1       1.310   3.918   2.534  1.00  0.00     0.043 A 
ATOM      8  C   UNL     1       0.828   3.449   1.309  1.00  0.00     0.019 A 
ENDROOT
BRANCH   1   9
ATOM      9  C   UNL     1       1.094   2.114  -0.780  1.00  0.00     0.256 C 
ATOM     10  C   UNL     1      -2.316   0.957  -1.303  1.00  0.00     0.115 C 
ATOM     11  C   UNL     1      -1.439   1.372  -0.150  1.00  0.00     0.158 C 
ATOM     12  C   UNL     1      -1.130   1.390  -2.119  1.00  0.00     0.158 C 
ATOM     13  N   UNL     1      -0.272   1.749  -0.974  1.00  0.00    -0.333 N 
ATOM     14  O   UNL     1       1.891   2.051  -1.755  1.00  0.00    -0.269 OA
BRANCH  10  15
ATOM     15  O   UNL     1      -3.413   1.814  -1.509  1.00  0.00    -0.385 OA
ATOM     16  H   UNL     1      -3.948   1.810  -0.672  1.00  0.00     0.211 HD
ENDBRANCH  10  15
BRANCH  10  17
ATOM     17  C   UNL     1      -2.676  -0.553  -1.417  1.00  0.00     0.089 C 
ATOM     18  C   UNL     1      -3.760  -0.955  -0.388  1.00  0.00     0.022 C 
ATOM     19  N   UNL     1      -1.458  -1.403  -1.351  1.00  0.00    -0.311 NA
ATOM     20  C   UNL     1      -3.973  -2.470  -0.407  1.00  0.00     0.003 C 
ATOM     21  C   UNL     1      -1.420  -2.350  -0.227  1.00  0.00     0.081 C 
ATOM     22  H   UNL     1      -1.371  -1.949  -2.240  1.00  0.00     0.123 HD
ATOM     23  C   UNL     1      -2.663  -3.251  -0.200  1.00  0.00     0.015 C 
ENDBRANCH  10  17
ENDBRANCH   1   9
BRANCH   2  24
ATOM     24  N   UNL     1       3.593   1.117   0.332  1.00  0.00    -0.350 N 
ATOM     25  H   UNL     1       4.434   1.437  -0.208  1.00  0.00     0.167 HD
BRANCH  24  26
ATOM     26  C   UNL     1       3.207  -0.273   0.311  1.00  0.00     0.075 A 
ATOM     27  C   UNL     1       3.811  -1.153  -0.605  1.00  0.00     0.147 A 
ATOM     28  C   UNL     1       2.246  -0.778   1.212  1.00  0.00     0.030 A 
ATOM     29  F   UNL     1       4.729  -0.695  -1.495  1.00  0.00    -0.205 F 
ATOM     30  C   UNL     1       3.465  -2.509  -0.614  1.00  0.00     0.056 A 
ATOM     31  C   UNL     1       1.909  -2.134   1.202  1.00  0.00     0.017 A 
ATOM     32  C   UNL     1       2.518  -3.001   0.290  1.00  0.00     0.016 A 
ATOM     33  I   UNL     1       2.025  -5.054   0.288  1.00  0.00    -0.044 I 
ENDBRANCH  24  26
ENDBRANCH   2  24
TORSDOF 5
