REMARK SMILES COc1cc2c(N3CCN(C(=O)Nc4ccc(OC(C)C)cc4)CC3)ncnc2cc1OCCCN1CCCCC1
REMARK SMILES IDX 3 1 31 2 30 3 29 4 28 5 27 6 26 7 6 8 5 9 4 10 2 11 1 12
REMARK SMILES IDX 32 13 33 14 34 15 35 16 36 17 37 18 41 19 38 20 40 21 39 22
REMARK SMILES IDX 7 23 8 24 25 25 9 26 24 27 10 28 11 29 12 30 13 31 14 33
REMARK SMILES IDX 15 34 23 35 16 36 22 37 17 38 18 39 19 40 20 41 21 42
REMARK H PARENT 13 32
REMARK Flexibility Score: inf
ROOT
ATOM      1  C   UNL     1      -3.268  -1.768   0.931  1.00  0.00     0.161 A 
ATOM      2  C   UNL     1      -3.830  -1.556  -0.337  1.00  0.00     0.163 A 
ATOM      3  C   UNL     1      -3.042  -1.010  -1.366  1.00  0.00     0.079 A 
ATOM      4  C   UNL     1      -1.707  -0.671  -1.133  1.00  0.00     0.080 A 
ATOM      5  N   UNL     1      -0.973  -0.103  -2.124  1.00  0.00    -0.236 NA
ATOM      6  C   UNL     1       0.320   0.254  -1.920  1.00  0.00     0.224 A 
ATOM      7  N   UNL     1       0.906   0.032  -0.718  1.00  0.00    -0.219 NA
ATOM      8  C   UNL     1       0.226  -0.539   0.312  1.00  0.00     0.140 A 
ATOM      9  C   UNL     1      -1.128  -0.896   0.133  1.00  0.00     0.047 A 
ATOM     10  C   UNL     1      -1.920  -1.430   1.165  1.00  0.00     0.064 A 
ENDROOT
BRANCH   1  11
ATOM     11  O   UNL     1      -4.083  -2.315   1.935  1.00  0.00    -0.493 OA
ATOM     12  C   UNL     1      -3.648  -2.608   3.259  1.00  0.00     0.278 C 
ENDBRANCH   1  11
BRANCH   2  13
ATOM     13  O   UNL     1      -5.180  -1.891  -0.529  1.00  0.00    -0.490 OA
BRANCH  13  14
ATOM     14  C   UNL     1      -5.899  -1.712  -1.748  1.00  0.00     0.231 C 
BRANCH  14  15
ATOM     15  C   UNL     1      -7.385  -2.010  -1.527  1.00  0.00     0.057 C 
BRANCH  15  16
ATOM     16  C   UNL     1      -8.014  -1.065  -0.496  1.00  0.00     0.088 C 
BRANCH  16  17
ATOM     17  N   UNL     1      -7.927   0.335  -0.974  1.00  0.00    -0.303 NA
ATOM     18  C   UNL     1      -7.410   1.234   0.077  1.00  0.00     0.084 C 
ATOM     19  C   UNL     1      -9.230   0.810  -1.479  1.00  0.00     0.084 C 
ATOM     20  C   UNL     1      -7.196   2.643  -0.489  1.00  0.00     0.016 C 
ATOM     21  C   UNL     1      -9.085   2.204  -2.099  1.00  0.00     0.016 C 
ATOM     22  C   UNL     1      -8.499   3.187  -1.081  1.00  0.00     0.003 C 
ENDBRANCH  16  17
ENDBRANCH  15  16
ENDBRANCH  14  15
ENDBRANCH  13  14
ENDBRANCH   2  13
BRANCH   8  23
ATOM     23  N   UNL     1       0.917  -0.777   1.550  1.00  0.00    -0.352 N 
ATOM     24  C   UNL     1       1.575   0.354   2.225  1.00  0.00     0.139 C 
ATOM     25  C   UNL     1       1.159  -2.154   2.008  1.00  0.00     0.139 C 
ATOM     26  C   UNL     1       2.598  -0.146   3.247  1.00  0.00     0.143 C 
ATOM     27  C   UNL     1       2.669  -2.414   2.130  1.00  0.00     0.143 C 
ATOM     28  N   UNL     1       3.380  -1.228   2.637  1.00  0.00    -0.321 N 
ATOM     29  C   UNL     1       4.766  -1.064   2.290  1.00  0.00     0.321 C 
ATOM     30  O   UNL     1       5.534  -2.064   2.330  1.00  0.00    -0.248 OA
ATOM     31  N   UNL     1       5.264   0.200   1.821  1.00  0.00    -0.308 N 
ATOM     32  H   UNL     1       4.813   1.081   2.149  1.00  0.00     0.171 HD
BRANCH  31  33
ATOM     33  C   UNL     1       6.317   0.325   0.848  1.00  0.00     0.043 A 
ATOM     34  C   UNL     1       7.069   1.507   0.798  1.00  0.00     0.030 A 
ATOM     35  C   UNL     1       6.553  -0.675  -0.111  1.00  0.00     0.030 A 
ATOM     36  C   UNL     1       8.052   1.683  -0.182  1.00  0.00     0.048 A 
ATOM     37  C   UNL     1       7.533  -0.497  -1.091  1.00  0.00     0.048 A 
ATOM     38  C   UNL     1       8.288   0.679  -1.142  1.00  0.00     0.119 A 
BRANCH  38  39
ATOM     39  O   UNL     1       9.240   0.811  -2.167  1.00  0.00    -0.491 OA
BRANCH  39  40
ATOM     40  C   UNL     1      10.147   1.903  -2.334  1.00  0.00     0.167 C 
ATOM     41  C   UNL     1      11.299   1.794  -1.330  1.00  0.00     0.052 C 
ATOM     42  C   UNL     1      10.686   1.877  -3.765  1.00  0.00     0.052 C 
ENDBRANCH  39  40
ENDBRANCH  38  39
ENDBRANCH  31  33
ENDBRANCH   8  23
TORSDOF 10
