REMARK SMILES C[C@]12CC[C@H](O)C[C@@H]1CC[C@@H]1[C@@H]2CC[C@]2(C)C(=O)[C@H](Br)C[C@@H]12
REMARK SMILES IDX 22 1 21 2 19 3 20 4 17 5 18 6 15 7 16 8 14 9 13 10 12 11
REMARK SMILES IDX 11 12 10 13 9 14 8 15 7 16 5 17 4 18 3 19 2 20 1 21 6 22
REMARK H PARENT 6 23
REMARK Flexibility Score: inf
ROOT
ATOM      1  C   UNL     1      -2.238  -0.617  -0.688  1.00  0.00     0.007 C 
ATOM      2  C   UNL     1      -3.433  -0.230  -1.560  1.00  0.00     0.028 C 
ATOM      3  C   UNL     1      -4.555  -1.157  -1.051  1.00  0.00     0.124 C 
ATOM      4  Br  UNL     1      -4.720  -2.740  -2.166  1.00  0.00    -0.081 Br
ATOM      5  C   UNL     1      -4.099  -1.547   0.324  1.00  0.00     0.152 C 
ATOM      6  O   UNL     1      -4.742  -2.269   1.072  1.00  0.00    -0.298 OA
ATOM      7  C   UNL     1      -2.823  -0.873   0.708  1.00  0.00     0.030 C 
ATOM      8  C   UNL     1      -3.210   0.404   1.506  1.00  0.00     0.020 C 
ATOM      9  C   UNL     1      -1.807  -1.727   1.491  1.00  0.00     0.015 C 
ATOM     10  C   UNL     1      -0.439  -1.000   1.588  1.00  0.00     0.005 C 
ATOM     11  C   UNL     1       0.104  -0.497   0.207  1.00  0.00    -0.001 C 
ATOM     12  C   UNL     1      -0.984   0.273  -0.627  1.00  0.00    -0.003 C 
ATOM     13  C   UNL     1      -0.461   0.598  -2.040  1.00  0.00     0.004 C 
ATOM     14  C   UNL     1       0.861   1.374  -1.985  1.00  0.00     0.004 C 
ATOM     15  C   UNL     1       1.915   0.587  -1.185  1.00  0.00    -0.002 C 
ATOM     16  C   UNL     1       3.305   1.247  -1.269  1.00  0.00     0.036 C 
ATOM     17  C   UNL     1       4.363   0.367  -0.586  1.00  0.00     0.114 C 
ATOM     18  C   UNL     1       3.970   0.051   0.866  1.00  0.00     0.032 C 
ATOM     19  C   UNL     1       2.562  -0.567   0.964  1.00  0.00     0.010 C 
ATOM     20  C   UNL     1       1.459   0.305   0.289  1.00  0.00    -0.026 C 
ATOM     21  C   UNL     1       1.281   1.617   1.115  1.00  0.00     0.012 C 
ENDROOT
BRANCH  17  22
ATOM     22  O   UNL     1       5.598   1.033  -0.613  1.00  0.00    -0.393 OA
ATOM     23  H   UNL     1       6.295   0.352  -0.423  1.00  0.00     0.210 HD
ENDBRANCH  17  22
TORSDOF 1
