REMARK SMILES CN1CCN(c2ccc3nc(-c4c(N)c5c(F)cccc5[nH]c4=O)[nH]c3c2)CC1
REMARK SMILES IDX 12 1 13 2 15 3 21 4 22 5 23 6 24 7 20 8 19 9 18 10 16 11
REMARK SMILES IDX 17 12 11 14 6 15 7 16 27 17 8 18 26 19 9 20 25 21 10 22 5 24
REMARK SMILES IDX 1 25 2 26 3 27 29 28 4 29 28 30 14 31
REMARK H PARENT 22 13 25 23 14 32 14 33
REMARK Flexibility Score: inf
ROOT
ATOM      1  C   UNL     1      -3.407   0.066   0.391  1.00  0.00     0.106 A 
ATOM      2  C   UNL     1      -4.418  -0.024  -0.596  1.00  0.00     0.061 A 
ATOM      3  C   UNL     1      -5.779  -0.078  -0.193  1.00  0.00     0.058 A 
ATOM      4  C   UNL     1      -6.073  -0.161   1.193  1.00  0.00     0.053 A 
ATOM      5  N   UNL     1      -5.068  -0.132   2.112  1.00  0.00    -0.321 N 
ATOM      6  C   UNL     1      -3.766   0.000   1.749  1.00  0.00     0.261 A 
ATOM      7  O   UNL     1      -2.882   0.071   2.647  1.00  0.00    -0.269 OA
ATOM      8  C   UNL     1      -7.405  -0.263   1.626  1.00  0.00     0.027 A 
ATOM      9  C   UNL     1      -8.449  -0.254   0.704  1.00  0.00     0.005 A 
ATOM     10  C   UNL     1      -8.178  -0.121  -0.655  1.00  0.00     0.040 A 
ATOM     11  C   UNL     1      -6.860  -0.022  -1.110  1.00  0.00     0.134 A 
ATOM     12  F   UNL     1      -6.672   0.203  -2.434  1.00  0.00    -0.206 F 
ATOM     13  H   UNL     1      -5.298  -0.187   3.131  1.00  0.00     0.170 HD
ENDROOT
BRANCH   1  14
ATOM     14  C   UNL     1      -1.979   0.202   0.027  1.00  0.00     0.146 A 
ATOM     15  C   UNL     1       2.455   0.114  -0.543  1.00  0.00     0.039 A 
ATOM     16  C   UNL     1       2.130   1.246  -1.340  1.00  0.00     0.028 A 
ATOM     17  C   UNL     1       1.423  -0.578   0.135  1.00  0.00     0.054 A 
ATOM     18  C   UNL     1       0.796   1.675  -1.473  1.00  0.00     0.033 A 
ATOM     19  C   UNL     1       0.118  -0.121  -0.026  1.00  0.00     0.068 A 
ATOM     20  C   UNL     1      -0.185   0.958  -0.798  1.00  0.00     0.089 A 
ATOM     21  N   UNL     1      -1.006  -0.612   0.510  1.00  0.00    -0.338 N 
ATOM     22  N   UNL     1      -1.510   1.193  -0.779  1.00  0.00    -0.228 NA
ATOM     23  H   UNL     1      -1.108  -1.433   1.147  1.00  0.00     0.168 HD
BRANCH  15  24
ATOM     24  N   UNL     1       3.826  -0.306  -0.402  1.00  0.00    -0.369 N 
ATOM     25  C   UNL     1       7.796   0.670   0.299  1.00  0.00     0.105 C 
ATOM     26  N   UNL     1       6.355   0.458   0.101  1.00  0.00    -0.303 NA
ATOM     27  C   UNL     1       6.054   0.255  -1.337  1.00  0.00     0.105 C 
ATOM     28  C   UNL     1       5.882  -0.674   0.917  1.00  0.00     0.105 C 
ATOM     29  C   UNL     1       4.698  -0.442  -1.576  1.00  0.00     0.132 C 
ATOM     30  C   UNL     1       4.349  -0.685   0.917  1.00  0.00     0.132 C 
ENDBRANCH  15  24
ENDBRANCH   1  14
BRANCH   2  31
ATOM     31  N   UNL     1      -4.054  -0.181  -1.979  1.00  0.00    -0.397 N 
ATOM     32  H   UNL     1      -4.606  -0.804  -2.607  1.00  0.00     0.156 HD
ATOM     33  H   UNL     1      -3.130   0.124  -2.350  1.00  0.00     0.156 HD
ENDBRANCH   2  31
TORSDOF 3
