REMARK SMILES CCC[C@@H]1CC(=O)N([C@@H](CC)C(N)=O)C1
REMARK SMILES IDX 4 1 15 2 8 3 6 4 7 5 5 6 3 7 2 8 1 9 9 10 10 11 11 12 12 13
REMARK SMILES IDX 13 14 14 15
REMARK H PARENT 13 16 13 17
REMARK Flexibility Score: inf
ROOT
ATOM      1  C   UNL     1       1.524  -0.092  -0.070  1.00  0.00     0.018 C 
ATOM      2  C   UNL     1       0.104   0.195   0.471  1.00  0.00     0.124 C 
ATOM      3  N   UNL     1      -0.788  -0.688  -0.270  1.00  0.00    -0.330 N 
ATOM      4  C   UNL     1      -0.086  -1.205  -1.388  1.00  0.00     0.223 C 
ATOM      5  O   UNL     1      -0.628  -1.922  -2.271  1.00  0.00    -0.275 OA
ATOM      6  C   UNL     1       1.328  -0.783  -1.435  1.00  0.00     0.105 C 
ENDROOT
BRANCH   1   7
ATOM      7  C   UNL     1       2.380   1.190  -0.152  1.00  0.00     0.005 C 
BRANCH   7   8
ATOM      8  C   UNL     1       3.828   0.941  -0.609  1.00  0.00    -0.003 C 
ATOM      9  C   UNL     1       4.658   0.189   0.432  1.00  0.00     0.004 C 
ENDBRANCH   7   8
ENDBRANCH   1   7
BRANCH   3  10
ATOM     10  C   UNL     1      -2.248  -0.758  -0.118  1.00  0.00     0.173 C 
BRANCH  10  11
ATOM     11  C   UNL     1      -2.658  -0.777   1.371  1.00  0.00     0.032 C 
ATOM     12  C   UNL     1      -4.153  -1.032   1.559  1.00  0.00     0.006 C 
ENDBRANCH  10  11
BRANCH  10  13
ATOM     13  C   UNL     1      -2.906   0.355  -0.899  1.00  0.00     0.240 C 
ATOM     14  N   UNL     1      -2.884   1.709  -0.441  1.00  0.00    -0.368 N 
ATOM     15  O   UNL     1      -3.462   0.088  -1.998  1.00  0.00    -0.273 OA
ATOM     16  H   UNL     1      -3.334   2.460  -1.011  1.00  0.00     0.159 HD
ATOM     17  H   UNL     1      -2.430   1.977   0.459  1.00  0.00     0.159 HD
ENDBRANCH  10  13
ENDBRANCH   3  10
TORSDOF 5
