REMARK SMILES O=P(O)(NCCCl)NCCCl
REMARK SMILES IDX 2 1 1 2 3 3 4 5 5 7 6 8 7 9 8 10 9 12 10 13 11 14
REMARK H PARENT 3 4 4 6 8 11
REMARK Flexibility Score: inf
ROOT
ATOM      1  P   UNL     1       0.075   0.131  -0.982  1.00  0.00     0.338 P 
ATOM      2  O   UNL     1       0.791   0.247  -2.311  1.00  0.00    -0.256 OA
ENDROOT
BRANCH   1   3
ATOM      3  O   UNL     1       0.199   1.604  -0.152  1.00  0.00    -0.322 OA
ATOM      4  H   UNL     1       0.005   2.298  -0.831  1.00  0.00     0.221 HD
ENDBRANCH   1   3
BRANCH   1   5
ATOM      5  N   UNL     1       0.808  -1.156  -0.024  1.00  0.00    -0.232 NA
ATOM      6  H   UNL     1       0.497  -1.055   0.968  1.00  0.00     0.133 HD
BRANCH   5   7
ATOM      7  C   UNL     1       2.277  -1.132  -0.089  1.00  0.00     0.108 C 
BRANCH   7   8
ATOM      8  C   UNL     1       2.907   0.027   0.708  1.00  0.00     0.125 C 
ATOM      9  Cl  UNL     1       3.351   1.389  -0.356  1.00  0.00    -0.125 Cl
ENDBRANCH   7   8
ENDBRANCH   5   7
ENDBRANCH   1   5
BRANCH   1  10
ATOM     10  N   UNL     1      -1.615  -0.281  -1.288  1.00  0.00    -0.232 NA
ATOM     11  H   UNL     1      -1.838   0.069  -2.248  1.00  0.00     0.133 HD
BRANCH  10  12
ATOM     12  C   UNL     1      -2.525   0.398  -0.357  1.00  0.00     0.108 C 
BRANCH  12  13
ATOM     13  C   UNL     1      -2.482  -0.236   1.033  1.00  0.00     0.125 C 
ATOM     14  Cl  UNL     1      -3.797   0.414   2.045  1.00  0.00    -0.125 Cl
ENDBRANCH  12  13
ENDBRANCH  10  12
ENDBRANCH   1  10
TORSDOF 7
