REMARK SMILES C=CC(=O)Nc1cc2c(Nc3ccc(F)c(Cl)c3)ncnc2cc1OCCCN1CCOCC1
REMARK SMILES IDX 26 1 25 2 24 3 9 4 19 5 8 6 20 7 22 8 7 9 21 10 23 11 6 12
REMARK SMILES IDX 10 13 11 15 15 16 14 17 16 18 13 19 17 20 18 21 12 22 5 23
REMARK SMILES IDX 3 24 4 26 2 27 1 28 27 29 28 30 29 31 30 32 34 33 31 34
REMARK SMILES IDX 33 35 32 36
REMARK H PARENT 10 14 5 25
REMARK Flexibility Score: inf
ROOT
ATOM      1  C   UNL     1       2.639   1.216  -0.031  1.00  0.00     0.231 C 
ENDROOT
BRANCH   1   2
ATOM      2  O   UNL     1       1.343   1.773  -0.255  1.00  0.00    -0.491 OA
BRANCH   2   3
ATOM      3  C   UNL     1       0.124   1.166   0.096  1.00  0.00     0.145 A 
ATOM      4  C   UNL     1      -3.551  -0.733   0.994  1.00  0.00     0.141 A 
ATOM      5  N   UNL     1      -3.507  -1.833   1.790  1.00  0.00    -0.219 NA
ATOM      6  C   UNL     1      -2.349  -0.063   0.684  1.00  0.00     0.045 A 
ATOM      7  C   UNL     1      -2.338  -2.312   2.280  1.00  0.00     0.224 A 
ATOM      8  C   UNL     1      -1.149  -0.580   1.212  1.00  0.00     0.080 A 
ATOM      9  C   UNL     1      -2.298   1.069  -0.142  1.00  0.00     0.044 A 
ATOM     10  N   UNL     1      -1.172  -1.688   1.991  1.00  0.00    -0.236 NA
ATOM     11  C   UNL     1       0.071   0.031   0.923  1.00  0.00     0.077 A 
ATOM     12  C   UNL     1      -1.075   1.701  -0.414  1.00  0.00     0.084 A 
BRANCH   4  13
ATOM     13  N   UNL     1      -4.825  -0.253   0.528  1.00  0.00    -0.340 N 
ATOM     14  H   UNL     1      -4.996   0.776   0.534  1.00  0.00     0.168 HD
BRANCH  13  15
ATOM     15  C   UNL     1      -5.930  -1.115   0.204  1.00  0.00     0.041 A 
ATOM     16  F   UNL     1      -9.189  -3.534  -0.771  1.00  0.00    -0.205 F 
ATOM     17  C   UNL     1      -8.124  -2.754  -0.451  1.00  0.00     0.141 A 
ATOM     18  C   UNL     1      -6.826  -3.262  -0.525  1.00  0.00     0.078 A 
ATOM     19  C   UNL     1      -8.327  -1.427  -0.067  1.00  0.00     0.043 A 
ATOM     20  Cl  UNL     1      -6.562  -4.916  -1.041  1.00  0.00    -0.081 Cl
ATOM     21  C   UNL     1      -5.732  -2.444  -0.211  1.00  0.00     0.049 A 
ATOM     22  C   UNL     1      -7.238  -0.609   0.252  1.00  0.00     0.029 A 
ENDBRANCH  13  15
ENDBRANCH   4  13
BRANCH  12  23
ATOM     23  N   UNL     1      -1.058   2.851  -1.274  1.00  0.00    -0.319 N 
ATOM     24  C   UNL     1      -0.411   4.086  -0.902  1.00  0.00     0.247 C 
ATOM     25  H   UNL     1      -1.732   2.855  -2.074  1.00  0.00     0.170 HD
ATOM     26  O   UNL     1       0.004   4.248   0.280  1.00  0.00    -0.270 OA
BRANCH  24  27
ATOM     27  C   UNL     1      -0.226   5.189  -1.868  1.00  0.00     0.064 C 
ATOM     28  C   UNL     1      -0.401   5.046  -3.182  1.00  0.00     0.014 C 
ENDBRANCH  24  27
ENDBRANCH  12  23
ENDBRANCH   2   3
ENDBRANCH   1   2
BRANCH   1  29
ATOM     29  C   UNL     1       2.905   0.060  -1.012  1.00  0.00     0.057 C 
BRANCH  29  30
ATOM     30  C   UNL     1       3.598  -1.138  -0.354  1.00  0.00     0.088 C 
BRANCH  30  31
ATOM     31  N   UNL     1       4.814  -0.742   0.385  1.00  0.00    -0.299 NA
ATOM     32  C   UNL     1       5.179  -1.792   1.351  1.00  0.00     0.113 C 
ATOM     33  C   UNL     1       5.945  -0.501  -0.536  1.00  0.00     0.113 C 
ATOM     34  C   UNL     1       6.475  -1.414   2.077  1.00  0.00     0.175 C 
ATOM     35  C   UNL     1       7.202  -0.169   0.275  1.00  0.00     0.175 C 
ATOM     36  O   UNL     1       7.524  -1.227   1.152  1.00  0.00    -0.379 OA
ENDBRANCH  30  31
ENDBRANCH  29  30
ENDBRANCH   1  29
TORSDOF 9
