REMARK SMILES CC(C)C(=O)c1c(C(C)C)nn2ccccc12
REMARK SMILES IDX 6 1 17 2 16 3 15 4 14 5 13 6 12 7 11 8 7 9 4 10 5 11 2 12
REMARK SMILES IDX 1 13 3 14 8 15 9 16 10 17
REMARK H PARENT
REMARK Flexibility Score: inf
ROOT
ATOM      1  C   UNL     1       0.071  -0.040  -0.200  1.00  0.00     0.067 A 
ATOM      2  C   UNL     1       0.866  -1.172  -0.270  1.00  0.00     0.077 A 
ATOM      3  C   UNL     1       0.522  -2.512  -0.463  1.00  0.00     0.029 A 
ATOM      4  C   UNL     1       1.565  -3.450  -0.525  1.00  0.00     0.004 A 
ATOM      5  C   UNL     1       2.904  -3.033  -0.411  1.00  0.00     0.020 A 
ATOM      6  C   UNL     1       3.190  -1.671  -0.243  1.00  0.00     0.113 A 
ATOM      7  N   UNL     1       2.154  -0.797  -0.184  1.00  0.00    -0.240 N 
ATOM      8  N   UNL     1       2.252   0.516  -0.068  1.00  0.00    -0.172 NA
ATOM      9  C   UNL     1       0.990   1.006  -0.069  1.00  0.00     0.077 A 
ENDROOT
BRANCH   1  10
ATOM     10  C   UNL     1      -1.399   0.062  -0.283  1.00  0.00     0.169 C 
ATOM     11  O   UNL     1      -1.912   0.967  -0.996  1.00  0.00    -0.294 OA
BRANCH  10  12
ATOM     12  C   UNL     1      -2.296  -0.841   0.528  1.00  0.00     0.055 C 
ATOM     13  C   UNL     1      -3.022  -0.030   1.605  1.00  0.00     0.016 C 
ATOM     14  C   UNL     1      -3.301  -1.563  -0.377  1.00  0.00     0.016 C 
ENDBRANCH  10  12
ENDBRANCH   1  10
BRANCH   9  15
ATOM     15  C   UNL     1       0.669   2.477   0.017  1.00  0.00     0.035 C 
ATOM     16  C   UNL     1       0.842   3.132  -1.356  1.00  0.00     0.014 C 
ATOM     17  C   UNL     1       1.549   3.168   1.065  1.00  0.00     0.014 C 
ENDBRANCH   9  15
TORSDOF 3
