REMARK SMILES CC(C)c1cc2c(cc1S(=O)(=O)O)[C@@]1(C)CCC[C@@](C)(C(=O)O)[C@@H]1CC2
REMARK SMILES IDX 24 1 25 2 26 3 6 4 5 5 4 6 9 7 8 8 7 9 14 10 15 11 16 12
REMARK SMILES IDX 17 13 18 14 19 15 20 16 21 17 22 18 23 19 10 21 11 22 12 23
REMARK SMILES IDX 13 24 2 26 1 27 3 28
REMARK H PARENT 23 20 13 25
REMARK Flexibility Score: inf
ROOT
ATOM      1  C   UNL     1       2.157  -0.602   0.273  1.00  0.00     0.017 C 
ATOM      2  C   UNL     1       1.650  -2.051   0.415  1.00  0.00     0.010 C 
ATOM      3  C   UNL     1       0.260  -2.065   1.054  1.00  0.00     0.036 C 
ATOM      4  C   UNL     1      -0.661  -0.957   0.584  1.00  0.00    -0.044 A 
ATOM      5  C   UNL     1      -1.994  -1.019   1.003  1.00  0.00     0.009 A 
ATOM      6  C   UNL     1      -2.939  -0.027   0.674  1.00  0.00    -0.024 A 
ATOM      7  C   UNL     1      -2.517   1.045  -0.172  1.00  0.00     0.098 A 
ATOM      8  C   UNL     1      -1.168   1.110  -0.567  1.00  0.00     0.027 A 
ATOM      9  C   UNL     1      -0.212   0.153  -0.170  1.00  0.00    -0.037 A 
ATOM     10  C   UNL     1       1.236   0.217  -0.706  1.00  0.00    -0.003 C 
ATOM     11  C   UNL     1       1.166  -0.341  -2.153  1.00  0.00     0.017 C 
ATOM     12  C   UNL     1       1.761   1.685  -0.741  1.00  0.00     0.012 C 
ATOM     13  C   UNL     1       3.260   1.788  -1.052  1.00  0.00     0.002 C 
ATOM     14  C   UNL     1       4.103   1.025  -0.028  1.00  0.00     0.019 C 
ATOM     15  C   UNL     1       3.718  -0.476   0.090  1.00  0.00     0.069 C 
ATOM     16  C   UNL     1       4.276  -1.252  -1.137  1.00  0.00     0.024 C 
ENDROOT
BRANCH  15  17
ATOM     17  C   UNL     1       4.390  -1.021   1.353  1.00  0.00     0.309 C 
ATOM     18  O   UNL     1       4.995  -2.129   1.343  1.00  0.00    -0.252 OA
BRANCH  17  19
ATOM     19  O   UNL     1       4.278  -0.328   2.557  1.00  0.00    -0.481 OA
ATOM     20  H   UNL     1       4.695  -0.690   3.407  1.00  0.00     0.296 HD
ENDBRANCH  17  19
ENDBRANCH  15  17
BRANCH   7  21
ATOM     21  S   UNL     1      -3.569   2.356  -0.766  1.00  0.00     0.294 S 
ATOM     22  O   UNL     1      -2.866   3.133  -1.845  1.00  0.00    -0.194 OA
ATOM     23  O   UNL     1      -3.879   3.307   0.355  1.00  0.00    -0.194 OA
BRANCH  21  24
ATOM     24  O   UNL     1      -4.996   1.766  -1.428  1.00  0.00    -0.282 OA
ATOM     25  H   UNL     1      -4.726   1.340  -2.280  1.00  0.00     0.234 HD
ENDBRANCH  21  24
ENDBRANCH   7  21
BRANCH   6  26
ATOM     26  C   UNL     1      -4.356  -0.266   1.211  1.00  0.00     0.014 C 
ATOM     27  C   UNL     1      -5.080   0.966   1.766  1.00  0.00     0.012 C 
ATOM     28  C   UNL     1      -5.213  -1.056   0.215  1.00  0.00     0.012 C 
ENDBRANCH   6  26
TORSDOF 5
