REMARK SMILES CCC(C)(C)C(=O)C(=O)N1CCC[C@H]1C(=O)O
REMARK SMILES IDX 8 1 9 2 6 3 7 4 3 5 4 6 5 7 2 8 1 9 10 10 11 11 14 12 12 13
REMARK SMILES IDX 13 14 15 15 16 16 17 17
REMARK H PARENT 17 18
REMARK Flexibility Score: inf
ROOT
ATOM      1  C   UNL     1      -0.042  -0.208   1.025  1.00  0.00     0.291 C 
ATOM      2  O   UNL     1       0.417  -0.928   1.952  1.00  0.00    -0.266 OA
ENDROOT
BRANCH   1   3
ATOM      3  C   UNL     1       0.857   0.769   0.360  1.00  0.00     0.225 C 
ATOM      4  O   UNL     1       0.380   1.882   0.007  1.00  0.00    -0.288 OA
BRANCH   3   5
ATOM      5  C   UNL     1       2.351   0.499   0.161  1.00  0.00     0.033 C 
ATOM      6  C   UNL     1       3.080   0.727   1.501  1.00  0.00     0.020 C 
ATOM      7  C   UNL     1       2.943   1.492  -0.872  1.00  0.00     0.020 C 
BRANCH   5   8
ATOM      8  C   UNL     1       2.618  -0.962  -0.316  1.00  0.00     0.011 C 
ATOM      9  C   UNL     1       1.905  -1.346  -1.619  1.00  0.00     0.005 C 
ENDBRANCH   5   8
ENDBRANCH   3   5
ENDBRANCH   1   3
BRANCH   1  10
ATOM     10  N   UNL     1      -1.421  -0.369   0.633  1.00  0.00    -0.322 N 
ATOM     11  C   UNL     1      -2.259  -1.415   1.203  1.00  0.00     0.121 C 
ATOM     12  C   UNL     1      -2.055   0.280  -0.510  1.00  0.00     0.195 C 
ATOM     13  C   UNL     1      -3.565  -1.378   0.422  1.00  0.00     0.024 C 
ATOM     14  C   UNL     1      -3.253  -0.605  -0.854  1.00  0.00     0.039 C 
BRANCH  12  15
ATOM     15  C   UNL     1      -2.515   1.664  -0.142  1.00  0.00     0.326 C 
ATOM     16  O   UNL     1      -2.498   2.580  -1.006  1.00  0.00    -0.250 OA
BRANCH  15  17
ATOM     17  O   UNL     1      -3.004   1.924   1.135  1.00  0.00    -0.480 OA
ATOM     18  H   UNL     1      -3.331   2.849   1.388  1.00  0.00     0.296 HD
ENDBRANCH  15  17
ENDBRANCH  12  15
ENDBRANCH   1  10
TORSDOF 6
