REMARK SMILES OC[C@H]1NC[C@H](O)[C@@H](O)[C@H]1O
REMARK SMILES IDX 3 1 4 2 5 3 6 4 8 5 10 6 2 8 1 9 11 11 9 13 7 15
REMARK H PARENT 4 7 1 10 11 12 9 14 7 16
REMARK Flexibility Score: inf
ROOT
ATOM      1  C   UNL     1       1.043  -0.471  -0.236  1.00  0.00     0.111 C 
ATOM      2  N   UNL     1       0.393  -1.188   0.876  1.00  0.00    -0.307 NA
ATOM      3  C   UNL     1      -1.008  -1.491   0.552  1.00  0.00     0.116 C 
ATOM      4  C   UNL     1      -1.808  -0.198   0.318  1.00  0.00     0.159 C 
ATOM      5  C   UNL     1      -1.155   0.635  -0.797  1.00  0.00     0.174 C 
ATOM      6  C   UNL     1       0.337   0.882  -0.486  1.00  0.00     0.165 C 
ATOM      7  H   UNL     1       0.882  -2.104   1.008  1.00  0.00     0.123 HD
ENDROOT
BRANCH   1   8
ATOM      8  C   UNL     1       2.547  -0.292   0.042  1.00  0.00     0.177 C 
BRANCH   8   9
ATOM      9  O   UNL     1       2.764   0.282   1.305  1.00  0.00    -0.395 OA
ATOM     10  H   UNL     1       3.037   1.225   1.157  1.00  0.00     0.210 HD
ENDBRANCH   8   9
ENDBRANCH   1   8
BRANCH   6  11
ATOM     11  O   UNL     1       0.461   1.709   0.646  1.00  0.00    -0.389 OA
ATOM     12  H   UNL     1       0.365   2.646   0.332  1.00  0.00     0.211 HD
ENDBRANCH   6  11
BRANCH   5  13
ATOM     13  O   UNL     1      -1.837   1.856  -0.928  1.00  0.00    -0.388 OA
ATOM     14  H   UNL     1      -1.555   2.248  -1.796  1.00  0.00     0.211 HD
ENDBRANCH   5  13
BRANCH   4  15
ATOM     15  O   UNL     1      -3.126  -0.514  -0.050  1.00  0.00    -0.389 OA
ATOM     16  H   UNL     1      -3.592  -0.806   0.776  1.00  0.00     0.211 HD
ENDBRANCH   4  15
TORSDOF 5
