REMARK SMILES COc1cc2c(Nc3ccc(Br)cc3F)ncnc2cc1OCC1CCN(C)CC1
REMARK SMILES IDX 3 1 21 2 20 3 19 4 18 5 17 6 16 7 6 8 5 9 4 10 2 11 1 12
REMARK SMILES IDX 22 13 23 14 24 15 25 16 30 17 26 18 29 19 27 20 28 21 7 22
REMARK SMILES IDX 8 24 14 25 9 26 15 27 13 28 10 29 11 30 12 31
REMARK H PARENT 7 23
REMARK Flexibility Score: inf
ROOT
ATOM      1  C   UNL     1       1.019  -0.087  -0.639  1.00  0.00     0.161 A 
ATOM      2  C   UNL     1      -0.020  -1.053  -0.613  1.00  0.00     0.163 A 
ATOM      3  C   UNL     1       0.307  -2.414  -0.633  1.00  0.00     0.079 A 
ATOM      4  C   UNL     1       1.637  -2.836  -0.668  1.00  0.00     0.080 A 
ATOM      5  N   UNL     1       1.924  -4.162  -0.720  1.00  0.00    -0.236 NA
ATOM      6  C   UNL     1       3.208  -4.598  -0.769  1.00  0.00     0.224 A 
ATOM      7  N   UNL     1       4.231  -3.708  -0.747  1.00  0.00    -0.219 NA
ATOM      8  C   UNL     1       4.008  -2.369  -0.676  1.00  0.00     0.141 A 
ATOM      9  C   UNL     1       2.679  -1.889  -0.666  1.00  0.00     0.047 A 
ATOM     10  C   UNL     1       2.361  -0.520  -0.679  1.00  0.00     0.064 A 
ENDROOT
BRANCH   1  11
ATOM     11  O   UNL     1       0.706   1.282  -0.624  1.00  0.00    -0.493 OA
ATOM     12  C   UNL     1       1.659   2.340  -0.640  1.00  0.00     0.278 C 
ENDBRANCH   1  11
BRANCH   2  13
ATOM     13  O   UNL     1      -1.390  -0.737  -0.573  1.00  0.00    -0.489 OA
BRANCH  13  14
ATOM     14  C   UNL     1      -1.961   0.569  -0.596  1.00  0.00     0.233 C 
BRANCH  14  15
ATOM     15  C   UNL     1      -3.493   0.465  -0.592  1.00  0.00     0.029 C 
ATOM     16  C   UNL     1      -4.129   1.855  -0.768  1.00  0.00     0.022 C 
ATOM     17  C   UNL     1      -4.004  -0.186   0.707  1.00  0.00     0.022 C 
ATOM     18  C   UNL     1      -5.656   1.761  -0.688  1.00  0.00     0.084 C 
ATOM     19  C   UNL     1      -5.537  -0.199   0.736  1.00  0.00     0.084 C 
ATOM     20  N   UNL     1      -6.065   1.174   0.602  1.00  0.00    -0.306 NA
ATOM     21  C   UNL     1      -7.533   1.157   0.703  1.00  0.00     0.105 C 
ENDBRANCH  14  15
ENDBRANCH  13  14
ENDBRANCH   2  13
BRANCH   8  22
ATOM     22  N   UNL     1       5.138  -1.486  -0.625  1.00  0.00    -0.337 N 
ATOM     23  H   UNL     1       5.889  -1.635  -1.336  1.00  0.00     0.168 HD
BRANCH  22  24
ATOM     24  C   UNL     1       5.386  -0.564   0.453  1.00  0.00     0.076 A 
ATOM     25  C   UNL     1       6.333   0.462   0.287  1.00  0.00     0.147 A 
ATOM     26  C   UNL     1       4.707  -0.675   1.683  1.00  0.00     0.030 A 
ATOM     27  F   UNL     1       7.004   0.595  -0.884  1.00  0.00    -0.205 F 
ATOM     28  C   UNL     1       6.580   1.370   1.323  1.00  0.00     0.057 A 
ATOM     29  C   UNL     1       4.958   0.235   2.714  1.00  0.00     0.018 A 
ATOM     30  C   UNL     1       5.892   1.259   2.534  1.00  0.00     0.021 A 
ATOM     31  Br  UNL     1       6.230   2.503   3.944  1.00  0.00    -0.051 Br
ENDBRANCH  22  24
ENDBRANCH   8  22
TORSDOF 6
