REMARK SMILES CC[C@@H]1SC2(CCN(C)CC2)NC1=O
REMARK SMILES IDX 3 1 4 2 5 3 6 4 7 5 8 6 9 7 10 8 11 9 12 10 13 11 14 12 2 14
REMARK SMILES IDX 1 15
REMARK H PARENT 12 13
REMARK Flexibility Score: inf
ROOT
ATOM      1  C   UNL     1       2.483  -0.878  -0.135  1.00  0.00     0.138 C 
ATOM      2  S   UNL     1       1.593   0.329  -1.185  1.00  0.00    -0.120 SA
ATOM      3  C   UNL     1      -0.051  -0.047  -0.450  1.00  0.00     0.089 C 
ATOM      4  C   UNL     1      -1.080  -0.287  -1.581  1.00  0.00     0.055 C 
ATOM      5  C   UNL     1      -2.522   0.069  -1.169  1.00  0.00     0.087 C 
ATOM      6  N   UNL     1      -2.694  -0.076   0.286  1.00  0.00    -0.306 NA
ATOM      7  C   UNL     1      -4.116   0.019   0.649  1.00  0.00     0.105 C 
ATOM      8  C   UNL     1      -1.908   0.942   1.019  1.00  0.00     0.087 C 
ATOM      9  C   UNL     1      -0.486   1.130   0.441  1.00  0.00     0.055 C 
ATOM     10  N   UNL     1       0.101  -1.251   0.358  1.00  0.00    -0.341 N 
ATOM     11  C   UNL     1       1.434  -1.692   0.526  1.00  0.00     0.234 C 
ATOM     12  O   UNL     1       1.704  -2.721   1.200  1.00  0.00    -0.274 OA
ATOM     13  H   UNL     1      -0.700  -1.735   0.823  1.00  0.00     0.164 HD
ENDROOT
BRANCH   1  14
ATOM     14  C   UNL     1       3.354  -0.163   0.911  1.00  0.00     0.021 C 
ATOM     15  C   UNL     1       4.540   0.558   0.273  1.00  0.00     0.005 C 
ENDBRANCH   1  14
TORSDOF 1
