REMARK SMILES CO[C@@H]1[C@@H](N)[C@@H](O[C@H]2[C@H](Oc3cccc4c(O)c5c(=O)oc6ccc(C)c7c(=O)oc(c34)c5c67)O[C@H](C)[C@H](O)[C@]2(C)O)O[C@H](C)[C@@H]1O
REMARK SMILES IDX 8 1 9 2 35 3 36 4 37 5 38 6 40 7 41 8 7 9 6 10 3 11 4 12
REMARK SMILES IDX 46 13 44 14 43 15 45 16 2 17 1 18 5 19 47 22 10 24 11 25
REMARK SMILES IDX 12 26 32 27 13 28 15 29 31 30 14 31 16 32 33 33 30 34 18 35
REMARK SMILES IDX 34 36 28 37 19 38 22 39 27 40 29 41 20 42 21 43 23 44 25 45
REMARK SMILES IDX 24 46 26 47 17 48 42 50 39 52
REMARK H PARENT 5 20 5 21 47 23 17 49 42 51 39 53
REMARK Flexibility Score: inf
ROOT
ATOM      1  C   UNL     1      -1.831  -1.758   1.079  1.00  0.00     0.224 C 
ATOM      2  C   UNL     1      -0.590  -1.743   2.004  1.00  0.00     0.340 C 
ATOM      3  O   UNL     1      -0.370  -2.997   2.623  1.00  0.00    -0.335 OA
ATOM      4  C   UNL     1      -1.425  -3.294   3.518  1.00  0.00     0.151 C 
ATOM      5  C   UNL     1      -1.061  -4.554   4.305  1.00  0.00     0.042 C 
ATOM      6  C   UNL     1      -2.763  -3.475   2.752  1.00  0.00     0.177 C 
ATOM      7  C   UNL     1      -3.101  -2.218   1.882  1.00  0.00     0.123 C 
ATOM      8  C   UNL     1      -3.622  -1.083   2.793  1.00  0.00     0.048 C 
ENDROOT
BRANCH   1   9
ATOM      9  O   UNL     1      -1.980  -0.449   0.548  1.00  0.00    -0.338 OA
BRANCH   9  10
ATOM     10  C   UNL     1      -2.708  -0.410  -0.676  1.00  0.00     0.270 C 
ATOM     11  C   UNL     1      -1.412   1.565  -1.613  1.00  0.00     0.171 C 
ATOM     12  C   UNL     1      -1.813   0.093  -1.833  1.00  0.00     0.140 C 
ATOM     13  C   UNL     1      -2.652   2.421  -1.277  1.00  0.00     0.173 C 
ATOM     14  C   UNL     1      -3.497   1.743  -0.170  1.00  0.00     0.149 C 
ATOM     15  O   UNL     1      -3.853   0.417  -0.535  1.00  0.00    -0.345 OA
ATOM     16  C   UNL     1      -4.773   2.536   0.120  1.00  0.00     0.041 C 
BRANCH  11  17
ATOM     17  O   UNL     1      -0.810   2.063  -2.798  1.00  0.00    -0.377 OA
ATOM     18  C   UNL     1       0.372   2.771  -2.501  1.00  0.00     0.195 C 
ENDBRANCH  11  17
BRANCH  12  19
ATOM     19  N   UNL     1      -0.618  -0.745  -1.951  1.00  0.00    -0.321 NA
ATOM     20  H   UNL     1      -0.920  -1.726  -2.158  1.00  0.00     0.119 HD
ATOM     21  H   UNL     1      -0.073  -0.436  -2.790  1.00  0.00     0.119 HD
ENDBRANCH  12  19
BRANCH  13  22
ATOM     22  O   UNL     1      -3.414   2.689  -2.431  1.00  0.00    -0.388 OA
ATOM     23  H   UNL     1      -3.826   1.841  -2.733  1.00  0.00     0.211 HD
ENDBRANCH  13  22
ENDBRANCH   9  10
ENDBRANCH   1   9
BRANCH   2  24
ATOM     24  O   UNL     1       0.576  -1.334   1.284  1.00  0.00    -0.461 OA
BRANCH  24  25
ATOM     25  C   UNL     1       1.251  -2.009   0.250  1.00  0.00     0.134 A 
ATOM     26  C   UNL     1       0.986  -3.359  -0.043  1.00  0.00     0.047 A 
ATOM     27  C   UNL     1       2.234  -1.311  -0.507  1.00  0.00     0.071 A 
ATOM     28  C   UNL     1       1.684  -4.017  -1.049  1.00  0.00     0.005 A 
ATOM     29  C   UNL     1       2.958  -2.000  -1.519  1.00  0.00     0.032 A 
ATOM     30  C   UNL     1       2.503   0.060  -0.289  1.00  0.00     0.151 A 
ATOM     31  C   UNL     1       2.668  -3.354  -1.773  1.00  0.00     0.013 A 
ATOM     32  C   UNL     1       3.974  -1.346  -2.253  1.00  0.00     0.139 A 
ATOM     33  C   UNL     1       3.471   0.724  -1.063  1.00  0.00     0.048 A 
ATOM     34  O   UNL     1       1.828   0.742   0.634  1.00  0.00    -0.421 OA
ATOM     35  C   UNL     1       4.202   0.045  -2.064  1.00  0.00     0.114 A 
ATOM     36  C   UNL     1       3.683   2.094  -0.839  1.00  0.00     0.044 A 
ATOM     37  C   UNL     1       1.999   2.035   0.884  1.00  0.00     0.344 A 
ATOM     38  C   UNL     1       5.092   0.823  -2.852  1.00  0.00     0.348 A 
ATOM     39  C   UNL     1       4.622   2.764  -1.638  1.00  0.00     0.140 A 
ATOM     40  C   UNL     1       2.948   2.788   0.150  1.00  0.00     0.075 A 
ATOM     41  O   UNL     1       1.291   2.561   1.782  1.00  0.00    -0.246 OA
ATOM     42  O   UNL     1       5.707   0.332  -3.834  1.00  0.00    -0.246 OA
ATOM     43  O   UNL     1       5.269   2.116  -2.596  1.00  0.00    -0.422 OA
ATOM     44  C   UNL     1       4.862   4.121  -1.440  1.00  0.00     0.048 A 
ATOM     45  C   UNL     1       3.192   4.182   0.335  1.00  0.00    -0.036 A 
ATOM     46  C   UNL     1       4.157   4.823  -0.465  1.00  0.00     0.008 A 
ATOM     47  C   UNL     1       2.457   5.016   1.354  1.00  0.00     0.045 C 
BRANCH  32  48
ATOM     48  O   UNL     1       4.744  -2.118  -3.131  1.00  0.00    -0.506 OA
ATOM     49  H   UNL     1       5.693  -1.901  -3.397  1.00  0.00     0.293 HD
ENDBRANCH  32  48
ENDBRANCH  24  25
ENDBRANCH   2  24
BRANCH   7  50
ATOM     50  O   UNL     1      -4.157  -2.530   1.001  1.00  0.00    -0.384 OA
ATOM     51  H   UNL     1      -3.834  -3.204   0.348  1.00  0.00     0.211 HD
ENDBRANCH   7  50
BRANCH   6  52
ATOM     52  O   UNL     1      -2.742  -4.650   1.974  1.00  0.00    -0.387 OA
ATOM     53  H   UNL     1      -1.981  -4.586   1.341  1.00  0.00     0.211 HD
ENDBRANCH   6  52
TORSDOF 10
