REMARK SMILES COc1ccc(/C=C2\CCCN=C2c2cccnc2)c(OC)c1
REMARK SMILES IDX 7 1 8 2 9 3 10 4 11 5 12 6 13 7 6 8 20 9 5 10 23 11 4 12
REMARK SMILES IDX 3 13 21 14 22 15 2 16 1 17 14 18 19 19 15 20 18 21 16 22
REMARK SMILES IDX 17 23
REMARK H PARENT
REMARK Flexibility Score: inf
ROOT
ATOM      1  C   UNL     1      -0.377  -0.024   0.256  1.00  0.00     0.018 C 
ATOM      2  C   UNL     1      -1.212   0.443  -0.699  1.00  0.00    -0.021 C 
ATOM      3  C   UNL     1      -0.691   0.887  -2.053  1.00  0.00     0.040 C 
ATOM      4  C   UNL     1      -1.690   0.532  -3.154  1.00  0.00     0.028 C 
ATOM      5  C   UNL     1      -3.058   1.123  -2.821  1.00  0.00     0.143 C 
ATOM      6  N   UNL     1      -3.496   0.722  -1.484  1.00  0.00    -0.284 NA
ATOM      7  C   UNL     1      -2.697   0.461  -0.488  1.00  0.00     0.069 C 
ENDROOT
BRANCH   1   8
ATOM      8  C   UNL     1       1.101  -0.006   0.168  1.00  0.00     0.017 A 
ATOM      9  C   UNL     1       1.833  -1.174   0.451  1.00  0.00     0.129 A 
ATOM     10  C   UNL     1       1.781   1.188  -0.120  1.00  0.00     0.016 A 
ATOM     11  C   UNL     1       3.241  -1.135   0.401  1.00  0.00     0.093 A 
ATOM     12  C   UNL     1       3.175   1.216  -0.169  1.00  0.00     0.047 A 
ATOM     13  C   UNL     1       3.916   0.050   0.089  1.00  0.00     0.122 A 
BRANCH   9  14
ATOM     14  O   UNL     1       1.136  -2.352   0.766  1.00  0.00    -0.496 OA
ATOM     15  C   UNL     1       1.751  -3.600   1.069  1.00  0.00     0.278 C 
ENDBRANCH   9  14
BRANCH  13  16
ATOM     16  O   UNL     1       5.319   0.027   0.051  1.00  0.00    -0.497 OA
ATOM     17  C   UNL     1       6.134   1.155  -0.251  1.00  0.00     0.278 C 
ENDBRANCH  13  16
ENDBRANCH   1   8
BRANCH   7  18
ATOM     18  C   UNL     1      -3.314   0.174   0.826  1.00  0.00     0.018 A 
ATOM     19  C   UNL     1      -4.355  -0.761   0.933  1.00  0.00     0.121 A 
ATOM     20  C   UNL     1      -2.918   0.874   1.976  1.00  0.00     0.013 A 
ATOM     21  N   UNL     1      -4.940  -1.000   2.138  1.00  0.00    -0.264 NA
ATOM     22  C   UNL     1      -3.534   0.610   3.201  1.00  0.00     0.021 A 
ATOM     23  C   UNL     1      -4.552  -0.343   3.263  1.00  0.00     0.111 A 
ENDBRANCH   7  18
TORSDOF 4
