REMARK SMILES CCCN(CCc1cccs1)[C@H]1CCc2c(O)cccc2C1
REMARK SMILES IDX 5 1 4 2 3 3 2 4 1 5 12 6 13 7 22 8 14 9 21 10 15 11 20 12
REMARK SMILES IDX 16 13 19 14 18 15 17 16 6 18 7 19 8 20 11 21 9 22 10 23
REMARK H PARENT 17 17
REMARK Flexibility Score: inf
ROOT
ATOM      1  C   UNL     1      -1.834  -0.277  -0.119  1.00  0.00     0.090 C 
ENDROOT
BRANCH   1   2
ATOM      2  N   UNL     1      -0.705   0.672   0.035  1.00  0.00    -0.300 NA
BRANCH   2   3
ATOM      3  C   UNL     1      -0.911   1.921  -0.736  1.00  0.00     0.084 C 
BRANCH   3   4
ATOM      4  C   UNL     1      -1.820   2.880   0.044  1.00  0.00     0.012 C 
ATOM      5  C   UNL     1      -2.026   4.188  -0.715  1.00  0.00     0.005 C 
ENDBRANCH   3   4
ENDBRANCH   2   3
BRANCH   2   6
ATOM      6  C   UNL     1       0.612   0.010  -0.183  1.00  0.00     0.061 C 
ATOM      7  C   UNL     1       1.024  -0.089  -1.665  1.00  0.00     0.024 C 
ATOM      8  C   UNL     1       1.717   0.718   0.614  1.00  0.00     0.055 C 
ATOM      9  C   UNL     1       2.268  -0.972  -1.811  1.00  0.00     0.041 C 
ATOM     10  C   UNL     1       3.077   0.109   0.363  1.00  0.00    -0.040 A 
ATOM     11  C   UNL     1       3.359  -0.655  -0.802  1.00  0.00    -0.003 A 
ATOM     12  C   UNL     1       4.104   0.383   1.279  1.00  0.00     0.004 A 
ATOM     13  C   UNL     1       4.659  -1.194  -0.972  1.00  0.00     0.119 A 
ATOM     14  C   UNL     1       5.387  -0.122   1.077  1.00  0.00     0.004 A 
ATOM     15  C   UNL     1       5.660  -0.909  -0.038  1.00  0.00     0.046 A 
BRANCH  13  16
ATOM     16  O   UNL     1       4.989  -2.024  -2.047  1.00  0.00    -0.508 OA
ATOM     17  H   UNL     1       4.319  -2.340  -2.735  1.00  0.00     0.293 HD
ENDBRANCH  13  16
ENDBRANCH   2   6
ENDBRANCH   1   2
BRANCH   1  18
ATOM     18  C   UNL     1      -2.191  -0.876   1.242  1.00  0.00     0.062 C 
BRANCH  18  19
ATOM     19  C   UNL     1      -3.331  -1.837   1.114  1.00  0.00     0.006 A 
ATOM     20  C   UNL     1      -4.680  -1.507   1.152  1.00  0.00     0.015 A 
ATOM     21  S   UNL     1      -3.186  -3.477   0.774  1.00  0.00    -0.149 S 
ATOM     22  C   UNL     1      -5.520  -2.605   0.928  1.00  0.00     0.012 A 
ATOM     23  C   UNL     1      -4.836  -3.793   0.701  1.00  0.00     0.065 A 
ENDBRANCH  18  19
ENDBRANCH   1  18
TORSDOF 7
