REMARK SMILES CC(=O)[C@H]1CC[C@H]2[C@@H]3CC[C@H]4C[C@](C)(O)CC[C@]4(C)[C@H]3CC[C@]12C
REMARK SMILES IDX 7 1 6 2 5 3 4 4 23 5 24 6 22 7 21 8 20 9 8 10 9 11 10 12
REMARK SMILES IDX 11 13 12 14 13 15 14 16 16 17 17 18 18 19 19 20 2 21 1 22
REMARK SMILES IDX 3 23 15 24
REMARK H PARENT 15 25
REMARK Flexibility Score: inf
ROOT
ATOM      1  C   UNL     1      -1.828   0.008  -1.123  1.00  0.00    -0.001 C 
ATOM      2  C   UNL     1      -2.769   0.856  -1.973  1.00  0.00     0.005 C 
ATOM      3  C   UNL     1      -4.131   0.146  -1.853  1.00  0.00     0.012 C 
ATOM      4  C   UNL     1      -3.959  -0.937  -0.757  1.00  0.00     0.062 C 
ATOM      5  C   UNL     1      -2.700  -0.507   0.032  1.00  0.00    -0.020 C 
ATOM      6  C   UNL     1      -3.059   0.593   1.082  1.00  0.00     0.012 C 
ATOM      7  C   UNL     1      -1.942  -1.666   0.717  1.00  0.00     0.008 C 
ATOM      8  C   UNL     1      -0.547  -1.213   1.216  1.00  0.00     0.005 C 
ATOM      9  C   UNL     1       0.306  -0.514   0.108  1.00  0.00    -0.001 C 
ATOM     10  C   UNL     1      -0.495   0.613  -0.637  1.00  0.00    -0.004 C 
ATOM     11  C   UNL     1       0.322   1.174  -1.819  1.00  0.00     0.004 C 
ATOM     12  C   UNL     1       1.704   1.663  -1.370  1.00  0.00     0.004 C 
ATOM     13  C   UNL     1       2.474   0.529  -0.671  1.00  0.00    -0.002 C 
ATOM     14  C   UNL     1       3.935   0.928  -0.378  1.00  0.00     0.039 C 
ATOM     15  C   UNL     1       4.739  -0.269   0.193  1.00  0.00     0.062 C 
ATOM     16  C   UNL     1       6.153   0.196   0.592  1.00  0.00     0.042 C 
ATOM     17  C   UNL     1       4.025  -0.843   1.436  1.00  0.00     0.035 C 
ATOM     18  C   UNL     1       2.552  -1.203   1.160  1.00  0.00     0.010 C 
ATOM     19  C   UNL     1       1.721  -0.012   0.593  1.00  0.00    -0.026 C 
ATOM     20  C   UNL     1       1.575   1.072   1.706  1.00  0.00     0.012 C 
ENDROOT
BRANCH   4  21
ATOM     21  C   UNL     1      -5.194  -1.251   0.077  1.00  0.00     0.133 C 
ATOM     22  C   UNL     1      -6.184  -0.215   0.539  1.00  0.00     0.088 C 
ATOM     23  O   UNL     1      -5.385  -2.410   0.414  1.00  0.00    -0.300 OA
ENDBRANCH   4  21
BRANCH  15  24
ATOM     24  O   UNL     1       4.842  -1.293  -0.770  1.00  0.00    -0.390 OA
ATOM     25  H   UNL     1       5.302  -0.920  -1.568  1.00  0.00     0.211 HD
ENDBRANCH  15  24
TORSDOF 2
