REMARK SMILES CCOc1cc2ncc(C#N)c(Nc3ccc(F)c(Cl)c3)c2cc1NC(=O)/C=C/CN(C)C
REMARK SMILES IDX 25 1 26 2 27 3 24 5 4 6 5 7 6 8 23 9 22 10 7 11 12 12 8 13
REMARK SMILES IDX 9 14 3 15 2 16 1 17 13 18 14 20 21 21 15 22 19 23 16 24
REMARK SMILES IDX 20 25 17 26 18 27 10 28 11 29 28 30 29 31 30 32 31 33 32 34
REMARK SMILES IDX 33 35
REMARK H PARENT 25 4 13 19
REMARK Flexibility Score: inf
ROOT
ATOM      1  N   UNL     1      -0.893  -0.101   0.283  1.00  0.00    -0.319 N 
ATOM      2  C   UNL     1      -2.205  -0.140   0.867  1.00  0.00     0.248 C 
ATOM      3  O   UNL     1      -2.366  -0.630   2.018  1.00  0.00    -0.270 OA
ATOM      4  H   UNL     1      -0.668   0.678  -0.375  1.00  0.00     0.170 HD
ENDROOT
BRANCH   1   5
ATOM      5  C   UNL     1       0.193  -0.922   0.744  1.00  0.00     0.084 A 
ATOM      6  C   UNL     1       0.018  -2.302   0.976  1.00  0.00     0.144 A 
ATOM      7  C   UNL     1       1.105  -3.067   1.437  1.00  0.00     0.077 A 
ATOM      8  C   UNL     1       2.358  -2.479   1.629  1.00  0.00     0.076 A 
ATOM      9  C   UNL     1       1.457  -0.340   0.916  1.00  0.00     0.042 A 
ATOM     10  C   UNL     1       2.552  -1.108   1.349  1.00  0.00     0.027 A 
ATOM     11  N   UNL     1       3.391  -3.234   2.087  1.00  0.00    -0.255 NA
ATOM     12  C   UNL     1       3.839  -0.551   1.531  1.00  0.00     0.068 A 
ATOM     13  C   UNL     1       4.626  -2.712   2.295  1.00  0.00     0.133 A 
ATOM     14  C   UNL     1       4.876  -1.363   2.027  1.00  0.00     0.094 A 
BRANCH   6  15
ATOM     15  O   UNL     1      -1.236  -2.879   0.720  1.00  0.00    -0.492 OA
BRANCH  15  16
ATOM     16  C   UNL     1      -1.559  -4.251   0.930  1.00  0.00     0.226 C 
ATOM     17  C   UNL     1      -3.014  -4.489   0.561  1.00  0.00     0.049 C 
ENDBRANCH  15  16
ENDBRANCH   6  15
BRANCH  12  18
ATOM     18  N   UNL     1       4.102   0.831   1.233  1.00  0.00    -0.354 N 
ATOM     19  H   UNL     1       4.437   1.438   2.015  1.00  0.00     0.167 HD
BRANCH  18  20
ATOM     20  C   UNL     1       4.070   1.377  -0.099  1.00  0.00     0.040 A 
ATOM     21  C   UNL     1       4.170   2.766  -0.275  1.00  0.00     0.049 A 
ATOM     22  C   UNL     1       3.952   0.550  -1.233  1.00  0.00     0.029 A 
ATOM     23  C   UNL     1       4.138   3.324  -1.559  1.00  0.00     0.078 A 
ATOM     24  C   UNL     1       3.920   1.110  -2.514  1.00  0.00     0.043 A 
ATOM     25  Cl  UNL     1       4.257   5.064  -1.754  1.00  0.00    -0.081 Cl
ATOM     26  C   UNL     1       4.012   2.494  -2.679  1.00  0.00     0.141 A 
ATOM     27  F   UNL     1       3.980   3.025  -3.926  1.00  0.00    -0.205 F 
ENDBRANCH  18  20
ENDBRANCH  12  18
BRANCH  14  28
ATOM     28  C   UNL     1       6.201  -0.834   2.236  1.00  0.00     0.103 C 
ATOM     29  N   UNL     1       7.264  -0.410   2.403  1.00  0.00    -0.192 NA
ENDBRANCH  14  28
ENDBRANCH   1   5
BRANCH   2  30
ATOM     30  C   UNL     1      -3.377   0.424   0.171  1.00  0.00     0.068 C 
ATOM     31  C   UNL     1      -3.375   0.721  -1.132  1.00  0.00    -0.006 C 
BRANCH  31  32
ATOM     32  C   UNL     1      -4.597   1.281  -1.802  1.00  0.00     0.111 C 
BRANCH  32  33
ATOM     33  N   UNL     1      -4.945   2.603  -1.242  1.00  0.00    -0.306 NA
ATOM     34  C   UNL     1      -6.309   2.977  -1.647  1.00  0.00     0.105 C 
ATOM     35  C   UNL     1      -3.996   3.633  -1.701  1.00  0.00     0.105 C 
ENDBRANCH  32  33
ENDBRANCH  31  32
ENDBRANCH   2  30
TORSDOF 9
