REMARK SMILES CN1[C@@H](CC(=O)c2ccccc2)CCC[C@H]1C[C@H](O)c1ccccc1
REMARK SMILES IDX 1 1 2 2 16 3 15 4 14 5 13 6 3 7 17 8 18 9 19 10 20 12 21 13
REMARK SMILES IDX 25 14 22 15 24 16 23 17 4 18 5 19 6 20 7 21 8 22 12 23 9 24
REMARK SMILES IDX 11 25 10 26
REMARK H PARENT 19 11
REMARK Flexibility Score: inf
ROOT
ATOM      1  C   UNL     1       0.151  -0.182   2.651  1.00  0.00     0.106 C 
ATOM      2  N   UNL     1      -0.386  -0.513   1.307  1.00  0.00    -0.300 NA
ATOM      3  C   UNL     1       0.701  -1.139   0.479  1.00  0.00     0.059 C 
ATOM      4  C   UNL     1       0.163  -1.620  -0.889  1.00  0.00     0.019 C 
ATOM      5  C   UNL     1      -1.007  -2.570  -0.713  1.00  0.00     0.003 C 
ATOM      6  C   UNL     1      -2.103  -1.864   0.056  1.00  0.00     0.020 C 
ATOM      7  C   UNL     1      -1.593  -1.393   1.434  1.00  0.00     0.064 C 
ENDROOT
BRANCH   3   8
ATOM      8  C   UNL     1       1.881  -0.140   0.259  1.00  0.00     0.055 C 
BRANCH   8   9
ATOM      9  C   UNL     1       3.003  -0.630  -0.692  1.00  0.00     0.146 C 
BRANCH   9  10
ATOM     10  O   UNL     1       3.455  -1.920  -0.358  1.00  0.00    -0.388 OA
ATOM     11  H   UNL     1       3.628  -1.946   0.619  1.00  0.00     0.211 HD
ENDBRANCH   9  10
BRANCH   9  12
ATOM     12  C   UNL     1       4.161   0.351  -0.718  1.00  0.00    -0.020 A 
ATOM     13  C   UNL     1       5.023   0.487   0.388  1.00  0.00     0.006 A 
ATOM     14  C   UNL     1       4.364   1.174  -1.842  1.00  0.00     0.006 A 
ATOM     15  C   UNL     1       6.073   1.410   0.358  1.00  0.00     0.000 A 
ATOM     16  C   UNL     1       5.415   2.095  -1.866  1.00  0.00     0.000 A 
ATOM     17  C   UNL     1       6.270   2.211  -0.768  1.00  0.00     0.000 A 
ENDBRANCH   9  12
ENDBRANCH   8   9
ENDBRANCH   3   8
BRANCH   7  18
ATOM     18  C   UNL     1      -2.780  -0.705   2.173  1.00  0.00     0.100 C 
BRANCH  18  19
ATOM     19  C   UNL     1      -3.042   0.708   1.699  1.00  0.00     0.164 C 
ATOM     20  O   UNL     1      -2.471   1.653   2.309  1.00  0.00    -0.294 OA
BRANCH  19  21
ATOM     21  C   UNL     1      -3.894   1.030   0.522  1.00  0.00     0.018 A 
ATOM     22  C   UNL     1      -4.939   0.182   0.101  1.00  0.00     0.012 A 
ATOM     23  C   UNL     1      -3.661   2.220  -0.194  1.00  0.00     0.012 A 
ATOM     24  C   UNL     1      -5.715   0.514  -1.015  1.00  0.00     0.001 A 
ATOM     25  C   UNL     1      -4.440   2.546  -1.308  1.00  0.00     0.001 A 
ATOM     26  C   UNL     1      -5.465   1.692  -1.719  1.00  0.00     0.000 A 
ENDBRANCH  19  21
ENDBRANCH  18  19
ENDBRANCH   7  18
TORSDOF 7
