REMARK SMILES CC1=C(CO)C2=C(C)C3(CC3)[C@@](C)(O)C(=O)C2=C1
REMARK SMILES IDX 1 1 2 2 3 3 6 4 7 5 8 6 9 7 10 8 11 9 12 10 13 11 15 12
REMARK SMILES IDX 16 13 17 14 18 15 4 16 5 17 14 19
REMARK H PARENT 5 18 14 20
REMARK Flexibility Score: inf
ROOT
ATOM      1  C   UNL     1       3.733   1.965   0.328  1.00  0.00     0.045 C 
ATOM      2  C   UNL     1       2.341   1.414   0.289  1.00  0.00    -0.044 C 
ATOM      3  C   UNL     1       2.009   0.123   0.156  1.00  0.00    -0.012 C 
ATOM      4  C   UNL     1       0.536   0.050   0.177  1.00  0.00    -0.009 C 
ATOM      5  C   UNL     1      -0.332  -0.968   0.003  1.00  0.00    -0.055 C 
ATOM      6  C   UNL     1       0.100  -2.320  -0.494  1.00  0.00     0.041 C 
ATOM      7  C   UNL     1      -1.801  -0.659   0.283  1.00  0.00     0.028 C 
ATOM      8  C   UNL     1      -2.800  -1.787   0.560  1.00  0.00     0.016 C 
ATOM      9  C   UNL     1      -2.175  -1.032   1.723  1.00  0.00     0.016 C 
ATOM     10  C   UNL     1      -2.335   0.737  -0.188  1.00  0.00     0.134 C 
ATOM     11  C   UNL     1      -2.451   0.721  -1.724  1.00  0.00     0.052 C 
ATOM     12  C   UNL     1      -1.333   1.803   0.231  1.00  0.00     0.195 C 
ATOM     13  O   UNL     1      -1.691   3.000   0.400  1.00  0.00    -0.291 OA
ATOM     14  C   UNL     1       0.084   1.424   0.345  1.00  0.00     0.028 C 
ATOM     15  C   UNL     1       1.130   2.231   0.416  1.00  0.00     0.016 C 
ENDROOT
BRANCH   3  16
ATOM     16  C   UNL     1       2.991  -1.008   0.027  1.00  0.00     0.192 C 
BRANCH  16  17
ATOM     17  O   UNL     1       3.256  -1.244  -1.327  1.00  0.00    -0.392 OA
ATOM     18  H   UNL     1       3.884  -2.012  -1.355  1.00  0.00     0.211 HD
ENDBRANCH  16  17
ENDBRANCH   3  16
BRANCH  10  19
ATOM     19  O   UNL     1      -3.599   1.008   0.377  1.00  0.00    -0.381 OA
ATOM     20  H   UNL     1      -3.940   1.858  -0.007  1.00  0.00     0.212 HD
ENDBRANCH  10  19
TORSDOF 3
