REMARK SMILES NCCc1c[nH]cn1
REMARK SMILES IDX 2 1 1 2 3 5 4 6 5 7 8 8 6 9 7 10
REMARK H PARENT 1 3 1 4 6 11
REMARK Flexibility Score: inf
ROOT
ATOM      1  C   UNL     1      -1.525   0.366  -0.770  1.00  0.00     0.084 C 
ENDROOT
BRANCH   1   2
ATOM      2  N   UNL     1      -2.983   0.297  -0.709  1.00  0.00    -0.330 NA
ATOM      3  H   UNL     1      -3.317   0.898   0.079  1.00  0.00     0.118 HD
ATOM      4  H   UNL     1      -3.267  -0.688  -0.501  1.00  0.00     0.118 HD
ENDBRANCH   1   2
BRANCH   1   5
ATOM      5  C   UNL     1      -0.890  -0.096   0.548  1.00  0.00     0.073 C 
BRANCH   5   6
ATOM      6  C   UNL     1       0.602  -0.015   0.468  1.00  0.00     0.059 A 
ATOM      7  C   UNL     1       1.441  -0.997  -0.011  1.00  0.00     0.107 A 
ATOM      8  N   UNL     1       1.316   1.083   0.788  1.00  0.00    -0.242 NA
ATOM      9  N   UNL     1       2.694  -0.520   0.025  1.00  0.00    -0.351 N 
ATOM     10  C   UNL     1       2.590   0.732   0.510  1.00  0.00     0.196 A 
ATOM     11  H   UNL     1       3.566  -1.012  -0.271  1.00  0.00     0.167 HD
ENDBRANCH   5   6
ENDBRANCH   1   5
TORSDOF 3
