REMARK SMILES N#Cc1cc(CN2CCC(Nc3ncnc4sc(Cl)cc34)CC2)ccc1F.O=C(O)/C=C/C(=O)O
REMARK SMILES IDX 31 1 32 2 29 3 28 4 30 5 33 7 34 8 35 9
REMARK H PARENT 30 6 35 10
REMARK Flexibility Score: inf
ROOT
ATOM      1  C   UNL     1       0.231   0.216   0.589  1.00  0.00     0.100 C 
ATOM      2  C   UNL     1      -0.230  -0.212  -0.591  1.00  0.00     0.100 C 
ENDROOT
BRANCH   1   3
ATOM      3  C   UNL     1       1.650   0.106   0.958  1.00  0.00     0.328 C 
ATOM      4  O   UNL     1       2.032   0.528   2.081  1.00  0.00    -0.247 OA
BRANCH   3   5
ATOM      5  O   UNL     1       2.574  -0.460   0.083  1.00  0.00    -0.478 OA
ATOM      6  H   UNL     1       3.552  -0.537   0.338  1.00  0.00     0.297 HD
ENDBRANCH   3   5
ENDBRANCH   1   3
BRANCH   2   7
ATOM      7  C   UNL     1      -1.650  -0.103  -0.959  1.00  0.00     0.328 C 
ATOM      8  O   UNL     1      -2.031  -0.517  -2.087  1.00  0.00    -0.247 OA
BRANCH   7   9
ATOM      9  O   UNL     1      -2.576   0.451  -0.078  1.00  0.00    -0.478 OA
ATOM     10  H   UNL     1      -3.554   0.524  -0.331  1.00  0.00     0.297 HD
ENDBRANCH   7   9
ENDBRANCH   2   7
TORSDOF 4
