REMARK SMILES CC#CCC(C)[C@H](O)/C=C/[C@@H]1[C@H]2c3cccc(CCCC(=O)O)c3O[C@H]2C[C@H]1O
REMARK SMILES IDX 26 1 27 2 28 3 11 4 12 5 13 6 24 7 25 8 17 9 16 10 15 11
REMARK SMILES IDX 14 12 29 13 10 15 9 16 7 17 8 18 5 20 6 21 4 22 3 23 2 24
REMARK SMILES IDX 1 25 18 26 19 27 20 28 21 29 22 30 23 31
REMARK H PARENT 29 14 8 19 23 32
REMARK Flexibility Score: inf
ROOT
ATOM      1  C   UNL     1      -1.414  -0.877   1.311  1.00  0.00     0.184 C 
ATOM      2  C   UNL     1      -0.740  -2.200   1.663  1.00  0.00     0.078 C 
ATOM      3  C   UNL     1       0.102  -2.602   0.457  1.00  0.00     0.125 C 
ATOM      4  C   UNL     1       0.429  -1.300  -0.296  1.00  0.00     0.052 C 
ATOM      5  C   UNL     1      -0.664  -0.286   0.091  1.00  0.00     0.073 C 
ATOM      6  C   UNL     1      -1.744  -0.198  -0.937  1.00  0.00     0.002 A 
ATOM      7  C   UNL     1      -2.916  -0.680  -0.427  1.00  0.00     0.126 A 
ATOM      8  O   UNL     1      -2.758  -1.096   0.877  1.00  0.00    -0.489 OA
ATOM      9  C   UNL     1      -4.094  -0.711  -1.184  1.00  0.00    -0.006 A 
ATOM     10  C   UNL     1      -4.036  -0.226  -2.507  1.00  0.00     0.007 A 
ATOM     11  C   UNL     1      -2.828   0.275  -3.029  1.00  0.00     0.001 A 
ATOM     12  C   UNL     1      -1.668   0.295  -2.239  1.00  0.00     0.008 A 
ENDROOT
BRANCH   3  13
ATOM     13  O   UNL     1      -0.654  -3.455  -0.366  1.00  0.00    -0.392 OA
ATOM     14  H   UNL     1      -0.013  -3.891  -0.988  1.00  0.00     0.210 HD
ENDBRANCH   3  13
BRANCH   4  15
ATOM     15  C   UNL     1       1.820  -0.787   0.019  1.00  0.00    -0.022 C 
ATOM     16  C   UNL     1       2.193  -0.372   1.244  1.00  0.00     0.000 C 
BRANCH  16  17
ATOM     17  C   UNL     1       3.579   0.165   1.535  1.00  0.00     0.140 C 
BRANCH  17  18
ATOM     18  O   UNL     1       4.537  -0.841   1.316  1.00  0.00    -0.389 OA
ATOM     19  H   UNL     1       4.589  -1.006   0.339  1.00  0.00     0.211 HD
ENDBRANCH  17  18
BRANCH  17  20
ATOM     20  C   UNL     1       3.906   1.469   0.741  1.00  0.00     0.030 C 
ATOM     21  C   UNL     1       2.848   2.553   1.016  1.00  0.00     0.012 C 
BRANCH  20  22
ATOM     22  C   UNL     1       5.303   2.025   1.105  1.00  0.00     0.095 C 
BRANCH  22  23
ATOM     23  C   UNL     1       6.385   1.232   0.508  1.00  0.00    -0.103 C 
ATOM     24  C   UNL     1       7.273   0.581   0.017  1.00  0.00    -0.107 C 
ATOM     25  C   UNL     1       8.349  -0.212  -0.579  1.00  0.00     0.107 C 
ENDBRANCH  22  23
ENDBRANCH  20  22
ENDBRANCH  17  20
ENDBRANCH  16  17
ENDBRANCH   4  15
BRANCH   9  26
ATOM     26  C   UNL     1      -5.385  -1.225  -0.601  1.00  0.00     0.040 C 
BRANCH  26  27
ATOM     27  C   UNL     1      -5.962  -0.301   0.486  1.00  0.00     0.017 C 
BRANCH  27  28
ATOM     28  C   UNL     1      -6.394   1.080  -0.039  1.00  0.00     0.123 C 
BRANCH  28  29
ATOM     29  C   UNL     1      -5.233   2.015  -0.207  1.00  0.00     0.303 C 
ATOM     30  O   UNL     1      -5.036   2.585  -1.313  1.00  0.00    -0.252 OA
BRANCH  29  31
ATOM     31  O   UNL     1      -4.386   2.273   0.867  1.00  0.00    -0.481 OA
ATOM     32  H   UNL     1      -3.597   2.901   0.768  1.00  0.00     0.296 HD
ENDBRANCH  29  31
ENDBRANCH  28  29
ENDBRANCH  27  28
ENDBRANCH  26  27
ENDBRANCH   9  26
TORSDOF 12
