REMARK SMILES COc1cc2c(cc1OC)[C@H](c1cc(OC)c(OC)c(OC)c1)[N@@+](C)(CCCOC(=O)/C=C(\Cl)C(=O)OCCC[N@+]1(C)CCc3cc(OC)c(OC)cc3[C@H]1Cc1cc(OC)c(OC)c(OC)c1)CC2
REMARK SMILES IDX 33 1 34 2 32 3 35 4 36 5 37 6 38 7 39 8 40 9 41 10 55 11
REMARK SMILES IDX 54 12 53 13 45 14 43 15 42 16 50 17 46 18 44 19 47 20 56 21
REMARK SMILES IDX 57 22 59 23 58 24 62 25 65 26 68 27 60 28 61 29 63 30 64 31
REMARK SMILES IDX 66 32 67 33 51 34 52 35 48 36 49 37 30 38 31 39 29 40 28 41
REMARK SMILES IDX 27 42 26 43 24 44 25 45 69 46 11 47 70 48 6 49 5 50 7 51
REMARK SMILES IDX 4 52 8 53 3 54 12 55 13 56 23 57 14 58 20 59 17 60 15 61
REMARK SMILES IDX 16 62 21 63 22 64 18 65 19 66 9 67 10 68 2 69 1 70
REMARK H PARENT
REMARK Flexibility Score: inf
ROOT
ATOM      1  C   UNL     1       1.067  -0.974   1.928  1.00  0.00     0.133 C 
ATOM      2  Cl  UNL     1       1.278  -1.501   3.600  1.00  0.00    -0.076 Cl
ATOM      3  C   UNL     1       0.066  -0.157   1.547  1.00  0.00     0.121 C 
ENDROOT
BRANCH   1   4
ATOM      4  C   UNL     1       1.997  -1.532   0.922  1.00  0.00     0.350 C 
ATOM      5  O   UNL     1       2.748  -2.495   1.234  1.00  0.00    -0.245 OA
BRANCH   4   6
ATOM      6  O   UNL     1       2.050  -0.992  -0.367  1.00  0.00    -0.461 OA
BRANCH   6   7
ATOM      7  C   UNL     1       2.645  -1.671  -1.471  1.00  0.00     0.239 C 
BRANCH   7   8
ATOM      8  C   UNL     1       2.940  -0.683  -2.603  1.00  0.00     0.103 C 
BRANCH   8   9
ATOM      9  C   UNL     1       3.968   0.444  -2.278  1.00  0.00     0.267 C 
BRANCH   9  10
ATOM     10  N   UNL     1       5.420   0.061  -2.073  1.00  0.00    -0.319 N 
ATOM     11  C   UNL     1       5.669  -0.279  -0.602  1.00  0.00     0.221 C 
ATOM     12  C   UNL     1       6.644  -1.437  -0.357  1.00  0.00     0.017 A 
ATOM     13  C   UNL     1       6.666  -2.066   0.901  1.00  0.00     0.060 A 
ATOM     14  C   UNL     1       7.458  -1.956  -1.379  1.00  0.00    -0.029 A 
ATOM     15  C   UNL     1       5.793  -1.077  -2.976  1.00  0.00     0.269 C 
ATOM     16  C   UNL     1       6.231   1.237  -2.507  1.00  0.00     0.335 C 
ATOM     17  C   UNL     1       7.583  -3.093   1.183  1.00  0.00     0.161 A 
ATOM     18  C   UNL     1       8.393  -2.960  -1.097  1.00  0.00     0.055 A 
ATOM     19  C   UNL     1       7.249  -1.527  -2.796  1.00  0.00     0.097 C 
ATOM     20  C   UNL     1       8.467  -3.527   0.188  1.00  0.00     0.161 A 
BRANCH  11  21
ATOM     21  C   UNL     1       5.937   0.948   0.358  1.00  0.00     0.106 C 
BRANCH  21  22
ATOM     22  C   UNL     1       7.387   1.384   0.538  1.00  0.00    -0.034 A 
ATOM     23  C   UNL     1       9.224   2.918   0.035  1.00  0.00     0.164 A 
ATOM     24  C   UNL     1       7.872   2.546  -0.081  1.00  0.00     0.054 A 
ATOM     25  C   UNL     1      10.093   2.161   0.834  1.00  0.00     0.203 A 
ATOM     26  C   UNL     1       9.591   1.058   1.561  1.00  0.00     0.164 A 
ATOM     27  C   UNL     1       8.237   0.694   1.414  1.00  0.00     0.054 A 
BRANCH  23  28
ATOM     28  O   UNL     1       9.744   4.026  -0.653  1.00  0.00    -0.493 OA
ATOM     29  C   UNL     1       9.123   4.640  -1.772  1.00  0.00     0.278 C 
ENDBRANCH  23  28
BRANCH  25  30
ATOM     30  O   UNL     1      11.444   2.549   0.854  1.00  0.00    -0.490 OA
ATOM     31  C   UNL     1      12.546   1.695   1.172  1.00  0.00     0.278 C 
ENDBRANCH  25  30
BRANCH  26  32
ATOM     32  O   UNL     1      10.446   0.351   2.422  1.00  0.00    -0.493 OA
ATOM     33  C   UNL     1      10.074  -0.805   3.171  1.00  0.00     0.278 C 
ENDBRANCH  26  32
ENDBRANCH  21  22
ENDBRANCH  11  21
BRANCH  17  34
ATOM     34  O   UNL     1       7.653  -3.700   2.448  1.00  0.00    -0.493 OA
ATOM     35  C   UNL     1       6.888  -3.299   3.579  1.00  0.00     0.278 C 
ENDBRANCH  17  34
BRANCH  20  36
ATOM     36  O   UNL     1       9.399  -4.529   0.508  1.00  0.00    -0.493 OA
ATOM     37  C   UNL     1      10.373  -5.043  -0.396  1.00  0.00     0.278 C 
ENDBRANCH  20  36
ENDBRANCH   9  10
ENDBRANCH   8   9
ENDBRANCH   7   8
ENDBRANCH   6   7
ENDBRANCH   4   6
ENDBRANCH   1   4
BRANCH   3  38
ATOM     38  C   UNL     1      -0.971   0.401   2.442  1.00  0.00     0.332 C 
ATOM     39  O   UNL     1      -0.844   0.372   3.694  1.00  0.00    -0.247 OA
BRANCH  38  40
ATOM     40  O   UNL     1      -2.110   0.976   1.869  1.00  0.00    -0.462 OA
BRANCH  40  41
ATOM     41  C   UNL     1      -3.256   1.334   2.639  1.00  0.00     0.239 C 
BRANCH  41  42
ATOM     42  C   UNL     1      -4.320   1.989   1.755  1.00  0.00     0.103 C 
BRANCH  42  43
ATOM     43  C   UNL     1      -4.666   1.117   0.518  1.00  0.00     0.268 C 
BRANCH  43  44
ATOM     44  N   UNL     1      -5.963   1.455  -0.174  1.00  0.00    -0.316 N 
ATOM     45  C   UNL     1      -6.073   2.934  -0.321  1.00  0.00     0.335 C 
ATOM     46  C   UNL     1      -5.928   0.887  -1.556  1.00  0.00     0.269 C 
ATOM     47  C   UNL     1      -7.136   0.889   0.593  1.00  0.00     0.248 C 
ATOM     48  C   UNL     1      -5.792  -0.643  -1.586  1.00  0.00     0.097 C 
ATOM     49  C   UNL     1      -7.243  -0.625   0.496  1.00  0.00     0.021 A 
ATOM     50  C   UNL     1      -6.663  -1.332  -0.573  1.00  0.00    -0.029 A 
ATOM     51  C   UNL     1      -8.006  -1.318   1.448  1.00  0.00     0.061 A 
ATOM     52  C   UNL     1      -6.821  -2.724  -0.651  1.00  0.00     0.055 A 
ATOM     53  C   UNL     1      -8.178  -2.709   1.359  1.00  0.00     0.161 A 
ATOM     54  C   UNL     1      -7.581  -3.416   0.309  1.00  0.00     0.161 A 
BRANCH  47  55
ATOM     55  C   UNL     1      -8.490   1.522   0.243  1.00  0.00     0.022 A 
ATOM     56  C   UNL     1      -9.226   1.131  -0.890  1.00  0.00     0.061 A 
ATOM     57  C   UNL     1      -9.029   2.503   1.092  1.00  0.00     0.061 A 
ATOM     58  C   UNL     1     -10.465   1.726  -1.193  1.00  0.00     0.165 A 
ATOM     59  C   UNL     1     -10.272   3.099   0.812  1.00  0.00     0.165 A 
ATOM     60  C   UNL     1     -10.975   2.726  -0.342  1.00  0.00     0.203 A 
BRANCH  58  61
ATOM     61  O   UNL     1     -11.217   1.323  -2.305  1.00  0.00    -0.493 OA
ATOM     62  C   UNL     1     -10.824   0.314  -3.232  1.00  0.00     0.278 C 
ENDBRANCH  58  61
BRANCH  59  63
ATOM     63  O   UNL     1     -10.839   4.071   1.650  1.00  0.00    -0.493 OA
ATOM     64  C   UNL     1     -10.268   4.505   2.881  1.00  0.00     0.278 C 
ENDBRANCH  59  63
BRANCH  60  65
ATOM     65  O   UNL     1     -12.199   3.362  -0.593  1.00  0.00    -0.490 OA
ATOM     66  C   UNL     1     -12.541   3.951  -1.847  1.00  0.00     0.278 C 
ENDBRANCH  60  65
ENDBRANCH  47  55
BRANCH  53  67
ATOM     67  O   UNL     1      -8.947  -3.422   2.291  1.00  0.00    -0.493 OA
ATOM     68  C   UNL     1      -9.653  -2.832   3.380  1.00  0.00     0.278 C 
ENDBRANCH  53  67
BRANCH  54  69
ATOM     69  O   UNL     1      -7.768  -4.808   0.251  1.00  0.00    -0.493 OA
ATOM     70  C   UNL     1      -7.196  -5.659  -0.740  1.00  0.00     0.278 C 
ENDBRANCH  54  69
ENDBRANCH  43  44
ENDBRANCH  42  43
ENDBRANCH  41  42
ENDBRANCH  40  41
ENDBRANCH  38  40
ENDBRANCH   3  38
TORSDOF 25
