REMARK SMILES NC1=[NH+]C(O)C2C3OC4([O-])O[C@@H](C(O)C2(N1)[C@@H]4O)C3(O)CO
REMARK SMILES IDX 12 1 11 2 9 3 10 4 8 5 7 6 6 7 4 8 3 9 2 10 1 11 16 12 15 13
REMARK SMILES IDX 13 14 17 15 19 16 14 21 20 23 21 25 22 26 18 28 5 30
REMARK H PARENT 3 17 1 18 1 19 16 20 14 22 20 24 22 27 18 29 5 31
REMARK Flexibility Score: inf
ROOT
ATOM      1  C   UNL     1      -2.052   0.328   0.867  1.00  0.00     0.189 C 
ATOM      2  O   UNL     1      -2.140  -0.985   1.408  1.00  0.00    -0.352 OA
ATOM      3  C   UNL     1      -1.093  -1.825   0.907  1.00  0.00     0.130 C 
ATOM      4  O   UNL     1      -1.287  -3.104   1.430  1.00  0.00    -0.805 OA
ATOM      5  O   UNL     1      -1.118  -1.922  -0.522  1.00  0.00    -0.354 OA
ATOM      6  C   UNL     1      -1.033  -0.642  -1.142  1.00  0.00     0.170 C 
ATOM      7  C   UNL     1       0.322   0.040  -0.792  1.00  0.00     0.132 C 
ATOM      8  C   UNL     1       1.550  -0.574  -1.505  1.00  0.00     0.285 C 
ATOM      9  N   UNL     1       2.816  -0.127  -0.900  1.00  0.00    -0.251 N 
ATOM     10  C   UNL     1       2.926   0.416   0.285  1.00  0.00     0.343 C 
ATOM     11  N   UNL     1       4.214   0.803   0.772  1.00  0.00    -0.291 N 
ATOM     12  N   UNL     1       1.770   0.641   1.109  1.00  0.00    -0.267 N 
ATOM     13  C   UNL     1       0.462   0.097   0.751  1.00  0.00     0.154 C 
ATOM     14  C   UNL     1      -0.698   0.975   1.309  1.00  0.00     0.190 C 
ATOM     15  C   UNL     1       0.273  -1.297   1.389  1.00  0.00     0.200 C 
ATOM     16  C   UNL     1      -2.242   0.203  -0.671  1.00  0.00     0.143 C 
ATOM     17  H   UNL     1       3.683  -0.291  -1.460  1.00  0.00     0.262 HD
ATOM     18  H   UNL     1       4.312   1.240   1.714  1.00  0.00     0.256 HD
ATOM     19  H   UNL     1       5.073   0.656   0.197  1.00  0.00     0.256 HD
ATOM     20  H   UNL     1       1.907   1.039   2.065  1.00  0.00     0.260 HD
ENDROOT
BRANCH  14  21
ATOM     21  O   UNL     1      -0.607   2.308   0.879  1.00  0.00    -0.386 OA
ATOM     22  H   UNL     1       0.104   2.740   1.421  1.00  0.00     0.211 HD
ENDBRANCH  14  21
BRANCH  16  23
ATOM     23  O   UNL     1      -3.407  -0.552  -0.925  1.00  0.00    -0.382 OA
ATOM     24  H   UNL     1      -4.178  -0.071  -0.522  1.00  0.00     0.211 HD
ENDBRANCH  16  23
BRANCH  16  25
ATOM     25  C   UNL     1      -2.390   1.563  -1.412  1.00  0.00     0.196 C 
BRANCH  25  26
ATOM     26  O   UNL     1      -2.607   1.356  -2.783  1.00  0.00    -0.393 OA
ATOM     27  H   UNL     1      -3.576   1.175  -2.899  1.00  0.00     0.210 HD
ENDBRANCH  25  26
ENDBRANCH  16  25
BRANCH  15  28
ATOM     28  O   UNL     1       1.315  -2.173   1.045  1.00  0.00    -0.385 OA
ATOM     29  H   UNL     1       1.309  -2.910   1.710  1.00  0.00     0.211 HD
ENDBRANCH  15  28
BRANCH   8  30
ATOM     30  O   UNL     1       1.495  -1.976  -1.526  1.00  0.00    -0.361 OA
ATOM     31  H   UNL     1       2.205  -2.281  -2.149  1.00  0.00     0.214 HD
ENDBRANCH   8  30
TORSDOF 6
