REMARK SMILES Cc1ccc(Nc2nccc(N(C)c3ccc4c(C)n(C)nc4c3)n2)cc1S(N)(=O)=O
REMARK SMILES IDX 6 1 7 3 11 4 10 5 25 6 9 7 8 8 12 9 13 10 14 11 24 12 15 13
REMARK SMILES IDX 23 14 16 15 22 16 17 17 20 18 18 19 21 20 19 21 5 22 4 23
REMARK SMILES IDX 26 24 3 25 27 26 2 27 1 28 28 29 30 30 31 31 29 32
REMARK H PARENT 6 2 29 33 29 34
REMARK Flexibility Score: inf
ROOT
ATOM      1  N   UNL     1       2.850   0.892  -0.618  1.00  0.00    -0.324 N 
ATOM      2  H   UNL     1       2.946   1.831  -1.065  1.00  0.00     0.170 HD
ENDROOT
BRANCH   1   3
ATOM      3  C   UNL     1       1.603   0.584   0.020  1.00  0.00     0.229 A 
ATOM      4  C   UNL     1      -0.698   1.093   0.333  1.00  0.00     0.138 A 
ATOM      5  C   UNL     1      -0.790   0.062   1.281  1.00  0.00     0.067 A 
ATOM      6  N   UNL     1       0.504   1.333  -0.261  1.00  0.00    -0.195 NA
ATOM      7  C   UNL     1       0.348  -0.690   1.568  1.00  0.00     0.119 A 
ATOM      8  N   UNL     1       1.518  -0.415   0.939  1.00  0.00    -0.221 NA
BRANCH   4   9
ATOM      9  N   UNL     1      -1.841   1.912   0.001  1.00  0.00    -0.329 N 
ATOM     10  C   UNL     1      -1.631   3.306  -0.403  1.00  0.00     0.152 C 
BRANCH   9  11
ATOM     11  C   UNL     1      -3.186   1.408   0.141  1.00  0.00     0.044 A 
ATOM     12  C   UNL     1      -3.523   0.136  -0.378  1.00  0.00     0.057 A 
ATOM     13  C   UNL     1      -4.183   2.189   0.785  1.00  0.00     0.027 A 
ATOM     14  C   UNL     1      -4.831  -0.309  -0.224  1.00  0.00     0.095 A 
ATOM     15  C   UNL     1      -5.500   1.711   0.917  1.00  0.00     0.014 A 
ATOM     16  N   UNL     1      -5.357  -1.471  -0.654  1.00  0.00    -0.173 NA
ATOM     17  C   UNL     1      -5.784   0.449   0.401  1.00  0.00     0.023 A 
ATOM     18  N   UNL     1      -6.640  -1.456  -0.305  1.00  0.00    -0.272 N 
ATOM     19  C   UNL     1      -6.937  -0.306   0.349  1.00  0.00     0.043 A 
ATOM     20  C   UNL     1      -7.564  -2.545  -0.603  1.00  0.00     0.174 C 
ATOM     21  C   UNL     1      -8.302   0.088   0.831  1.00  0.00     0.067 C 
ENDBRANCH   9  11
ENDBRANCH   4   9
ENDBRANCH   1   3
BRANCH   1  22
ATOM     22  C   UNL     1       4.000   0.029  -0.595  1.00  0.00     0.042 A 
ATOM     23  C   UNL     1       3.868  -1.364  -0.681  1.00  0.00     0.026 A 
ATOM     24  C   UNL     1       5.281   0.592  -0.553  1.00  0.00     0.048 A 
ATOM     25  C   UNL     1       4.998  -2.181  -0.681  1.00  0.00     0.007 A 
ATOM     26  C   UNL     1       6.429  -0.217  -0.554  1.00  0.00     0.087 A 
ATOM     27  C   UNL     1       6.285  -1.626  -0.594  1.00  0.00    -0.031 A 
ATOM     28  C   UNL     1       7.473  -2.551  -0.605  1.00  0.00     0.046 C 
BRANCH  26  29
ATOM     29  S   UNL     1       8.018   0.570  -0.476  1.00  0.00     0.238 S 
ATOM     30  O   UNL     1       7.884   2.024  -0.834  1.00  0.00    -0.207 OA
ATOM     31  O   UNL     1       8.961  -0.068  -1.457  1.00  0.00    -0.207 OA
BRANCH  29  32
ATOM     32  N   UNL     1       8.664   0.453   1.125  1.00  0.00    -0.225 NA
ATOM     33  H   UNL     1       7.865   0.260   1.770  1.00  0.00     0.137 HD
ATOM     34  H   UNL     1       9.289  -0.383   1.156  1.00  0.00     0.137 HD
ENDBRANCH  29  32
ENDBRANCH  26  29
ENDBRANCH   1  22
TORSDOF 6
