REMARK SMILES O[C@@H](COc1cccc2ncccc12)CN1CCN([C@@H]2c3ccccc3[C@@H]3[C@H](c4ccccc42)C3(F)F)CC1
REMARK SMILES IDX 2 1 15 2 16 3 19 4 18 5 38 6 17 7 39 8 20 9 28 10 29 11
REMARK SMILES IDX 27 12 35 13 30 14 34 15 26 16 36 17 37 18 31 19 33 20 21 21
REMARK SMILES IDX 25 22 32 23 22 24 24 25 23 26 1 27 3 29 4 30 5 31 6 32 14 33
REMARK SMILES IDX 7 34 9 35 13 36 8 37 10 38 12 39 11 40
REMARK H PARENT 1 28
REMARK Flexibility Score: inf
ROOT
ATOM      1  C   UNL     1       2.314   1.304  -0.155  1.00  0.00     0.166 C 
ENDROOT
BRANCH   1   2
ATOM      2  C   UNL     1       2.017   0.775   1.272  1.00  0.00     0.120 C 
BRANCH   2   3
ATOM      3  N   UNL     1       0.632   0.299   1.487  1.00  0.00    -0.298 NA
ATOM      4  N   UNL     1      -2.164  -0.087   0.597  1.00  0.00    -0.290 NA
ATOM      5  C   UNL     1      -1.229  -1.207   0.909  1.00  0.00     0.101 C 
ATOM      6  C   UNL     1      -1.490   1.238   0.550  1.00  0.00     0.101 C 
ATOM      7  C   UNL     1       0.238  -0.848   0.648  1.00  0.00     0.100 C 
ATOM      8  C   UNL     1      -0.393   1.358   1.618  1.00  0.00     0.100 C 
BRANCH   4   9
ATOM      9  C   UNL     1      -2.958  -0.341  -0.637  1.00  0.00     0.118 C 
ATOM     10  C   UNL     1      -4.854  -0.779   1.674  1.00  0.00     0.104 C 
ATOM     11  C   UNL     1      -4.746  -1.759   0.531  1.00  0.00    -0.033 A 
ATOM     12  C   UNL     1      -4.931   0.731   1.388  1.00  0.00     0.104 C 
ATOM     13  C   UNL     1      -6.188  -0.047   1.755  1.00  0.00     0.263 C 
ATOM     14  C   UNL     1      -5.526  -2.926   0.582  1.00  0.00     0.004 A 
ATOM     15  C   UNL     1      -3.808  -1.595  -0.518  1.00  0.00    -0.023 A 
ATOM     16  C   UNL     1      -4.893   1.232  -0.037  1.00  0.00    -0.033 A 
ATOM     17  F   UNL     1      -6.665   0.172   3.034  1.00  0.00    -0.205 F 
ATOM     18  F   UNL     1      -7.100  -0.285   0.738  1.00  0.00    -0.205 F 
ATOM     19  C   UNL     1      -5.415  -3.900  -0.411  1.00  0.00     0.000 A 
ATOM     20  C   UNL     1      -3.717  -2.582  -1.517  1.00  0.00     0.006 A 
ATOM     21  C   UNL     1      -3.912   0.797  -0.963  1.00  0.00    -0.023 A 
ATOM     22  C   UNL     1      -5.779   2.258  -0.401  1.00  0.00     0.004 A 
ATOM     23  C   UNL     1      -4.514  -3.727  -1.460  1.00  0.00     0.000 A 
ATOM     24  C   UNL     1      -3.878   1.374  -2.246  1.00  0.00     0.006 A 
ATOM     25  C   UNL     1      -5.727   2.822  -1.677  1.00  0.00     0.000 A 
ATOM     26  C   UNL     1      -4.779   2.380  -2.598  1.00  0.00     0.000 A 
ENDBRANCH   4   9
ENDBRANCH   2   3
ENDBRANCH   1   2
BRANCH   1  27
ATOM     27  O   UNL     1       1.469   2.382  -0.459  1.00  0.00    -0.388 OA
ATOM     28  H   UNL     1       1.444   2.462  -1.449  1.00  0.00     0.211 HD
ENDBRANCH   1  27
BRANCH   1  29
ATOM     29  C   UNL     1       3.773   1.765  -0.264  1.00  0.00     0.262 C 
BRANCH  29  30
ATOM     30  O   UNL     1       4.647   0.653  -0.084  1.00  0.00    -0.490 OA
BRANCH  30  31
ATOM     31  C   UNL     1       6.049   0.718  -0.128  1.00  0.00     0.128 A 
ATOM     32  C   UNL     1       6.728   1.932  -0.358  1.00  0.00     0.047 A 
ATOM     33  C   UNL     1       6.798  -0.461   0.062  1.00  0.00     0.042 A 
ATOM     34  C   UNL     1       8.125   1.968  -0.398  1.00  0.00     0.006 A 
ATOM     35  C   UNL     1       8.212  -0.414   0.018  1.00  0.00     0.074 A 
ATOM     36  C   UNL     1       6.177  -1.700   0.295  1.00  0.00     0.016 A 
ATOM     37  C   UNL     1       8.865   0.800  -0.211  1.00  0.00     0.029 A 
ATOM     38  N   UNL     1       8.938  -1.551   0.199  1.00  0.00    -0.256 NA
ATOM     39  C   UNL     1       6.952  -2.847   0.476  1.00  0.00     0.021 A 
ATOM     40  C   UNL     1       8.344  -2.752   0.424  1.00  0.00     0.112 A 
ENDBRANCH  30  31
ENDBRANCH  29  30
ENDBRANCH   1  29
TORSDOF 7
