REMARK SMILES CN1CC2c3ccccc3Oc3ccc(Cl)cc3C2C1
REMARK SMILES IDX 1 1 2 2 20 3 19 4 4 5 3 6 5 7 10 8 11 9 12 10 13 11 14 12
REMARK SMILES IDX 15 13 16 14 17 15 18 16 9 17 8 18 7 19 6 20
REMARK H PARENT
REMARK Flexibility Score: inf
ROOT
ATOM      1  C   UNL     1      -1.731  -3.273   1.070  1.00  0.00     0.105 C 
ATOM      2  N   UNL     1      -1.490  -2.553  -0.192  1.00  0.00    -0.305 NA
ATOM      3  C   UNL     1      -2.109  -1.223  -0.170  1.00  0.00     0.093 C 
ATOM      4  C   UNL     1      -0.997  -0.227   0.152  1.00  0.00     0.046 C 
ATOM      5  C   UNL     1       0.195  -0.818  -0.573  1.00  0.00     0.046 C 
ATOM      6  C   UNL     1      -0.049  -2.333  -0.425  1.00  0.00     0.093 C 
ATOM      7  C   UNL     1       1.560  -0.377  -0.053  1.00  0.00    -0.000 A 
ATOM      8  C   UNL     1       1.788   0.811   0.705  1.00  0.00     0.130 A 
ATOM      9  O   UNL     1       0.835   1.810   0.962  1.00  0.00    -0.457 OA
ATOM     10  C   UNL     1      -0.268   2.161   0.176  1.00  0.00     0.131 A 
ATOM     11  C   UNL     1      -0.444   3.516  -0.129  1.00  0.00     0.049 A 
ATOM     12  C   UNL     1      -1.551   3.941  -0.862  1.00  0.00     0.024 A 
ATOM     13  C   UNL     1      -2.507   3.015  -1.277  1.00  0.00     0.041 A 
ATOM     14  Cl  UNL     1      -3.914   3.554  -2.177  1.00  0.00    -0.084 Cl
ATOM     15  C   UNL     1      -2.353   1.661  -0.963  1.00  0.00     0.028 A 
ATOM     16  C   UNL     1      -1.222   1.215  -0.242  1.00  0.00     0.001 A 
ATOM     17  C   UNL     1       3.065   1.050   1.234  1.00  0.00     0.047 A 
ATOM     18  C   UNL     1       4.134   0.203   0.949  1.00  0.00     0.004 A 
ATOM     19  C   UNL     1       3.944  -0.897   0.122  1.00  0.00     0.001 A 
ATOM     20  C   UNL     1       2.675  -1.179  -0.383  1.00  0.00     0.008 A 
ENDROOT
TORSDOF 0
