REMARK SMILES CN(C)CC(c1ccc(O)cc1)C1(O)CCCCC1
REMARK SMILES IDX 5 1 4 2 2 3 1 4 3 5 6 6 7 7 12 8 8 9 11 10 9 11 10 12 13 14
REMARK SMILES IDX 15 15 19 16 16 17 18 18 17 19 14 20
REMARK H PARENT 10 13 14 21
REMARK Flexibility Score: inf
ROOT
ATOM      1  C   UNL     1       0.287   0.071   0.645  1.00  0.00     0.065 C 
ENDROOT
BRANCH   1   2
ATOM      2  C   UNL     1       0.395   1.607   0.412  1.00  0.00     0.095 C 
BRANCH   2   3
ATOM      3  N   UNL     1      -0.594   2.357   1.222  1.00  0.00    -0.309 NA
ATOM      4  C   UNL     1      -0.790   3.704   0.664  1.00  0.00     0.105 C 
ATOM      5  C   UNL     1      -0.163   2.466   2.628  1.00  0.00     0.105 C 
ENDBRANCH   2   3
ENDBRANCH   1   2
BRANCH   1   6
ATOM      6  C   UNL     1      -1.165  -0.401   0.706  1.00  0.00    -0.040 A 
ATOM      7  C   UNL     1      -1.566  -1.288   1.722  1.00  0.00     0.008 A 
ATOM      8  C   UNL     1      -2.120   0.019  -0.241  1.00  0.00     0.008 A 
ATOM      9  C   UNL     1      -2.887  -1.741   1.791  1.00  0.00     0.046 A 
ATOM     10  C   UNL     1      -3.441  -0.433  -0.166  1.00  0.00     0.046 A 
ATOM     11  C   UNL     1      -3.827  -1.314   0.850  1.00  0.00     0.115 A 
BRANCH  11  12
ATOM     12  O   UNL     1      -5.141  -1.771   0.934  1.00  0.00    -0.508 OA
ATOM     13  H   UNL     1      -5.846  -1.482   0.266  1.00  0.00     0.293 HD
ENDBRANCH  11  12
ENDBRANCH   1   6
BRANCH   1  14
ATOM     14  C   UNL     1       1.161  -0.813  -0.326  1.00  0.00     0.073 C 
ATOM     15  C   UNL     1       2.621  -0.296  -0.366  1.00  0.00     0.036 C 
ATOM     16  C   UNL     1       0.604  -0.853  -1.792  1.00  0.00     0.036 C 
ATOM     17  C   UNL     1       3.553  -1.238  -1.159  1.00  0.00     0.003 C 
ATOM     18  C   UNL     1       1.669  -1.165  -2.867  1.00  0.00     0.003 C 
ATOM     19  C   UNL     1       2.842  -1.976  -2.310  1.00  0.00     0.000 C 
BRANCH  14  20
ATOM     20  O   UNL     1       1.212  -2.124   0.200  1.00  0.00    -0.389 OA
ATOM     21  H   UNL     1       0.320  -2.545   0.105  1.00  0.00     0.211 HD
ENDBRANCH  14  20
ENDBRANCH   1  14
TORSDOF 6
