REMARK SMILES C=C1CC[C@@]2(O)[C@H]3Cc4ccc(O)c5c4[C@@]2(CCN3CC2CC2)[C@H]1O5
REMARK SMILES IDX 12 1 11 2 10 3 9 4 8 5 7 6 19 7 18 8 17 9 16 10 24 11 25 12
REMARK SMILES IDX 14 13 15 14 2 15 1 16 3 17 4 18 5 19 13 20 6 22 20 24 21 25
REMARK SMILES IDX 22 26 23 27
REMARK H PARENT 13 21 6 23
REMARK Flexibility Score: inf
ROOT
ATOM      1  C   UNL     1      -3.360  -2.365   0.457  1.00  0.00     0.158 A 
ATOM      2  C   UNL     1      -2.602  -3.153   1.349  1.00  0.00     0.050 A 
ATOM      3  C   UNL     1      -1.280  -2.780   1.679  1.00  0.00     0.008 A 
ATOM      4  C   UNL     1      -0.692  -1.655   1.068  1.00  0.00    -0.038 A 
ATOM      5  C   UNL     1       0.607  -1.058   1.556  1.00  0.00     0.058 C 
ATOM      6  C   UNL     1       1.047   0.237   0.778  1.00  0.00     0.094 C 
ATOM      7  N   UNL     1       1.873  -0.071  -0.422  1.00  0.00    -0.297 NA
ATOM      8  C   UNL     1       1.144  -0.844  -1.454  1.00  0.00     0.086 C 
ATOM      9  C   UNL     1      -0.179  -0.158  -1.853  1.00  0.00     0.035 C 
ATOM     10  C   UNL     1      -1.017   0.256  -0.614  1.00  0.00     0.072 C 
ATOM     11  C   UNL     1      -2.415   0.837  -1.028  1.00  0.00     0.213 C 
ATOM     12  O   UNL     1      -3.327  -0.262  -0.878  1.00  0.00    -0.481 OA
ATOM     13  C   UNL     1      -2.743  -1.257  -0.121  1.00  0.00     0.166 A 
ATOM     14  C   UNL     1      -1.435  -0.975   0.111  1.00  0.00     0.015 A 
ATOM     15  C   UNL     1      -2.906   1.995  -0.166  1.00  0.00    -0.036 C 
ATOM     16  C   UNL     1      -4.049   2.605  -0.516  1.00  0.00     0.012 C 
ATOM     17  C   UNL     1      -2.161   2.522   1.050  1.00  0.00     0.037 C 
ATOM     18  C   UNL     1      -0.988   1.649   1.513  1.00  0.00     0.042 C 
ATOM     19  C   UNL     1      -0.148   1.136   0.324  1.00  0.00     0.095 C 
ENDROOT
BRANCH   1  20
ATOM     20  O   UNL     1      -4.692  -2.659   0.178  1.00  0.00    -0.504 OA
ATOM     21  H   UNL     1      -5.155  -3.456   0.599  1.00  0.00     0.293 HD
ENDBRANCH   1  20
BRANCH  19  22
ATOM     22  O   UNL     1       0.398   2.247  -0.361  1.00  0.00    -0.387 OA
ATOM     23  H   UNL     1      -0.310   2.666  -0.914  1.00  0.00     0.211 HD
ENDBRANCH  19  22
BRANCH   7  24
ATOM     24  C   UNL     1       3.182  -0.675  -0.096  1.00  0.00     0.088 C 
BRANCH  24  25
ATOM     25  C   UNL     1       4.234  -0.196  -1.105  1.00  0.00     0.003 C 
ATOM     26  C   UNL     1       5.652  -0.064  -0.570  1.00  0.00     0.005 C 
ATOM     27  C   UNL     1       4.816   1.181  -0.822  1.00  0.00     0.005 C 
ENDBRANCH  24  25
ENDBRANCH   7  24
TORSDOF 4
