REMARK SMILES CCCCCCOC(=O)/N=C(/N)c1ccc(NCc2nc3cc(C(=O)N(CCC(=O)OCC)c4ccccn4)ccc3n2C)cc1
REMARK SMILES IDX 17 1 16 3 13 4 14 5 46 6 15 7 45 8 11 9 10 10 12 11 8 14
REMARK SMILES IDX 9 15 7 16 6 17 5 18 4 19 3 20 2 21 1 22 18 23 19 24 20 25
REMARK SMILES IDX 43 26 21 27 42 28 44 29 22 30 41 31 23 32 40 33 24 34 25 35
REMARK SMILES IDX 26 36 27 37 28 38 29 39 30 40 31 41 32 42 33 43 34 44 39 45
REMARK SMILES IDX 35 46 38 47 36 48 37 49
REMARK H PARENT 17 2 12 12 12 13
REMARK Flexibility Score: inf
ROOT
ATOM      1  N   UNL     1       0.602   0.270  -1.395  1.00  0.00    -0.378 N 
ATOM      2  H   UNL     1       0.008   1.107  -1.191  1.00  0.00     0.161 HD
ENDROOT
BRANCH   1   3
ATOM      3  C   UNL     1       1.976   0.496  -1.760  1.00  0.00     0.034 A 
ATOM      4  C   UNL     1       4.646   1.014  -2.510  1.00  0.00     0.017 A 
ATOM      5  C   UNL     1       4.160  -0.302  -2.482  1.00  0.00     0.014 A 
ATOM      6  C   UNL     1       3.787   2.068  -2.171  1.00  0.00     0.014 A 
ATOM      7  C   UNL     1       2.839  -0.562  -2.101  1.00  0.00     0.026 A 
ATOM      8  C   UNL     1       2.467   1.810  -1.795  1.00  0.00     0.026 A 
BRANCH   4   9
ATOM      9  C   UNL     1       6.018   1.304  -2.989  1.00  0.00     0.138 C 
ATOM     10  N   UNL     1       7.078   0.729  -2.493  1.00  0.00    -0.158 NA
ATOM     11  N   UNL     1       6.185   2.220  -4.072  1.00  0.00    -0.383 N 
ATOM     12  H   UNL     1       7.140   2.440  -4.435  1.00  0.00     0.158 HD
ATOM     13  H   UNL     1       5.359   2.671  -4.528  1.00  0.00     0.158 HD
BRANCH  10  14
ATOM     14  C   UNL     1       7.159  -0.137  -1.352  1.00  0.00     0.435 C 
ATOM     15  O   UNL     1       6.278  -0.107  -0.451  1.00  0.00    -0.222 OA
BRANCH  14  16
ATOM     16  O   UNL     1       8.266  -0.983  -1.231  1.00  0.00    -0.448 OA
BRANCH  16  17
ATOM     17  C   UNL     1       8.539  -1.762  -0.067  1.00  0.00     0.235 C 
BRANCH  17  18
ATOM     18  C   UNL     1       9.107  -0.888   1.058  1.00  0.00     0.042 C 
BRANCH  18  19
ATOM     19  C   UNL     1      10.440  -0.241   0.648  1.00  0.00     0.003 C 
BRANCH  19  20
ATOM     20  C   UNL     1      10.987   0.720   1.717  1.00  0.00    -0.000 C 
BRANCH  20  21
ATOM     21  C   UNL     1      11.493  -0.012   2.969  1.00  0.00    -0.003 C 
ATOM     22  C   UNL     1      12.199   0.947   3.923  1.00  0.00     0.004 C 
ENDBRANCH  20  21
ENDBRANCH  19  20
ENDBRANCH  18  19
ENDBRANCH  17  18
ENDBRANCH  16  17
ENDBRANCH  14  16
ENDBRANCH  10  14
ENDBRANCH   4   9
ENDBRANCH   1   3
BRANCH   1  23
ATOM     23  C   UNL     1       0.001  -1.060  -1.283  1.00  0.00     0.188 C 
BRANCH  23  24
ATOM     24  C   UNL     1      -1.462  -0.947  -0.969  1.00  0.00     0.128 A 
ATOM     25  N   UNL     1      -2.422  -1.122  -1.914  1.00  0.00    -0.231 NA
ATOM     26  N   UNL     1      -1.955  -0.555   0.237  1.00  0.00    -0.330 N 
ATOM     27  C   UNL     1      -3.556  -0.842  -1.248  1.00  0.00     0.090 A 
ATOM     28  C   UNL     1      -3.285  -0.501   0.044  1.00  0.00     0.068 A 
ATOM     29  C   UNL     1      -1.208  -0.322   1.472  1.00  0.00     0.151 C 
ATOM     30  C   UNL     1      -4.853  -0.847  -1.754  1.00  0.00     0.044 A 
ATOM     31  C   UNL     1      -4.294  -0.126   0.932  1.00  0.00     0.029 A 
ATOM     32  C   UNL     1      -5.906  -0.457  -0.895  1.00  0.00     0.042 A 
ATOM     33  C   UNL     1      -5.614  -0.098   0.448  1.00  0.00     0.016 A 
BRANCH  32  34
ATOM     34  C   UNL     1      -7.299  -0.431  -1.402  1.00  0.00     0.259 C 
ATOM     35  O   UNL     1      -7.624  -1.214  -2.336  1.00  0.00    -0.269 OA
BRANCH  34  36
ATOM     36  N   UNL     1      -8.294   0.454  -0.844  1.00  0.00    -0.292 N 
BRANCH  36  37
ATOM     37  C   UNL     1      -9.669  -0.035  -0.650  1.00  0.00     0.139 C 
BRANCH  37  38
ATOM     38  C   UNL     1      -9.838  -0.708   0.718  1.00  0.00     0.144 C 
BRANCH  38  39
ATOM     39  C   UNL     1      -9.068  -1.988   0.803  1.00  0.00     0.307 C 
ATOM     40  O   UNL     1      -9.484  -3.010   0.192  1.00  0.00    -0.252 OA
BRANCH  39  41
ATOM     41  O   UNL     1      -7.870  -2.024   1.523  1.00  0.00    -0.466 OA
BRANCH  41  42
ATOM     42  C   UNL     1      -7.048  -3.184   1.628  1.00  0.00     0.229 C 
ATOM     43  C   UNL     1      -7.634  -4.167   2.633  1.00  0.00     0.049 C 
ENDBRANCH  41  42
ENDBRANCH  39  41
ENDBRANCH  38  39
ENDBRANCH  37  38
ENDBRANCH  36  37
BRANCH  36  44
ATOM     44  C   UNL     1      -7.970   1.817  -0.489  1.00  0.00     0.135 A 
ATOM     45  N   UNL     1      -8.652   2.435   0.517  1.00  0.00    -0.239 NA
ATOM     46  C   UNL     1      -6.982   2.537  -1.189  1.00  0.00     0.047 A 
ATOM     47  C   UNL     1      -8.394   3.718   0.887  1.00  0.00     0.113 A 
ATOM     48  C   UNL     1      -6.700   3.854  -0.820  1.00  0.00     0.005 A 
ATOM     49  C   UNL     1      -7.408   4.451   0.223  1.00  0.00     0.020 A 
ENDBRANCH  36  44
ENDBRANCH  34  36
ENDBRANCH  32  34
ENDBRANCH  23  24
ENDBRANCH   1  23
TORSDOF 19
