REMARK SMILES N#Cc1ccc2[nH]cc(CCCCN3CCN(c4ccc5oc(C(N)=O)cc5c4)CC3)c2c1
REMARK SMILES IDX 12 1 13 2 14 3 17 4 16 5 30 6 15 7 31 8 18 9 23 10 27 11
REMARK SMILES IDX 22 12 28 13 21 14 29 15 20 16 19 17 24 18 25 19 26 22 11 23
REMARK SMILES IDX 10 24 9 25 8 26 32 27 7 28 6 29 33 30 5 32 3 33 4 34 2 35
REMARK SMILES IDX 1 36
REMARK H PARENT 25 20 25 21 7 31
REMARK Flexibility Score: inf
ROOT
ATOM      1  C   UNL     1      -2.329  -0.620  -1.128  1.00  0.00     0.016 C 
ENDROOT
BRANCH   1   2
ATOM      2  C   UNL     1      -1.087   0.016  -0.497  1.00  0.00     0.084 C 
BRANCH   2   3
ATOM      3  N   UNL     1      -0.067  -1.030  -0.264  1.00  0.00    -0.300 NA
ATOM      4  N   UNL     1       2.515   0.089   0.158  1.00  0.00    -0.369 N 
ATOM      5  C   UNL     1       2.003   0.036  -1.214  1.00  0.00     0.132 C 
ATOM      6  C   UNL     1       1.524   0.172   1.230  1.00  0.00     0.132 C 
ATOM      7  C   UNL     1       0.958  -1.090  -1.332  1.00  0.00     0.106 C 
ATOM      8  C   UNL     1       0.531  -0.984   1.089  1.00  0.00     0.106 C 
BRANCH   4   9
ATOM      9  C   UNL     1       3.928  -0.000   0.434  1.00  0.00     0.038 A 
ATOM     10  C   UNL     1       8.386   0.711   0.130  1.00  0.00     0.192 A 
ATOM     11  C   UNL     1       7.309   1.217  -0.601  1.00  0.00     0.065 A 
ATOM     12  O   UNL     1       7.960  -0.119   1.065  1.00  0.00    -0.451 OA
ATOM     13  C   UNL     1       6.205   0.626  -0.032  1.00  0.00     0.023 A 
ATOM     14  C   UNL     1       6.654  -0.178   0.976  1.00  0.00     0.135 A 
ATOM     15  C   UNL     1       4.851   0.745  -0.336  1.00  0.00     0.038 A 
ATOM     16  C   UNL     1       5.782  -0.930   1.755  1.00  0.00     0.050 A 
ATOM     17  C   UNL     1       4.407  -0.842   1.475  1.00  0.00     0.030 A 
BRANCH  10  18
ATOM     18  C   UNL     1       9.811   1.022  -0.078  1.00  0.00     0.284 C 
ATOM     19  N   UNL     1      10.237   1.959  -1.069  1.00  0.00    -0.363 N 
ATOM     20  H   UNL     1       9.552   2.505  -1.637  1.00  0.00     0.160 HD
ATOM     21  H   UNL     1      11.252   2.157  -1.196  1.00  0.00     0.160 HD
ATOM     22  O   UNL     1      10.675   0.445   0.635  1.00  0.00    -0.266 OA
ENDBRANCH  10  18
ENDBRANCH   4   9
ENDBRANCH   2   3
ENDBRANCH   1   2
BRANCH   1  23
ATOM     23  C   UNL     1      -3.375   0.439  -1.504  1.00  0.00     0.006 C 
BRANCH  23  24
ATOM     24  C   UNL     1      -4.647  -0.190  -2.090  1.00  0.00     0.038 C 
BRANCH  24  25
ATOM     25  C   UNL     1      -5.484  -0.837  -1.025  1.00  0.00    -0.023 A 
ATOM     26  C   UNL     1      -5.479  -2.181  -0.661  1.00  0.00     0.087 A 
ATOM     27  C   UNL     1      -6.345  -0.215  -0.143  1.00  0.00     0.004 A 
ATOM     28  N   UNL     1      -6.301  -2.388   0.394  1.00  0.00    -0.361 N 
ATOM     29  C   UNL     1      -6.823  -1.186   0.699  1.00  0.00     0.046 A 
ATOM     30  C   UNL     1      -6.724   1.121  -0.016  1.00  0.00     0.030 A 
ATOM     31  H   UNL     1      -6.492  -3.298   0.867  1.00  0.00     0.166 HD
ATOM     32  C   UNL     1      -7.717  -0.889   1.726  1.00  0.00     0.028 A 
ATOM     33  C   UNL     1      -7.644   1.453   1.000  1.00  0.00     0.053 A 
ATOM     34  C   UNL     1      -8.131   0.449   1.873  1.00  0.00     0.021 A 
BRANCH  33  35
ATOM     35  C   UNL     1      -8.073   2.817   1.161  1.00  0.00     0.099 C 
ATOM     36  N   UNL     1      -8.421   3.915   1.287  1.00  0.00    -0.192 NA
ENDBRANCH  33  35
ENDBRANCH  24  25
ENDBRANCH  23  24
ENDBRANCH   1  23
TORSDOF 8
