REMARK SMILES C[C@]12Cc3c[nH]nc3C[C@@H]1CC[C@@H]1[C@@H]2CC[C@@]2(C)[C@H]1CC[C@]2(C)O
REMARK SMILES IDX 19 1 20 2 21 3 22 4 23 5 17 6 18 7 16 8 15 9 14 10 13 11
REMARK SMILES IDX 12 12 11 13 10 14 9 15 8 16 7 17 6 18 5 19 4 20 3 21 2 22
REMARK SMILES IDX 1 23 24 25
REMARK H PARENT 6 24 24 26
REMARK Flexibility Score: inf
ROOT
ATOM      1  C   UNL     1      -1.997  -0.606   0.353  1.00  0.00     0.001 C 
ATOM      2  C   UNL     1      -2.983  -1.743   0.578  1.00  0.00     0.007 C 
ATOM      3  C   UNL     1      -4.345  -1.168   0.149  1.00  0.00     0.036 C 
ATOM      4  C   UNL     1      -4.081   0.203  -0.539  1.00  0.00     0.068 C 
ATOM      5  C   UNL     1      -4.493   1.352   0.417  1.00  0.00     0.042 C 
ATOM      6  C   UNL     1      -2.547   0.151  -0.867  1.00  0.00    -0.001 C 
ATOM      7  C   UNL     1      -2.348  -0.632  -2.210  1.00  0.00     0.015 C 
ATOM      8  C   UNL     1      -1.803   1.508  -0.951  1.00  0.00     0.010 C 
ATOM      9  C   UNL     1      -0.272   1.308  -1.058  1.00  0.00     0.005 C 
ATOM     10  C   UNL     1       0.303   0.399   0.076  1.00  0.00    -0.001 C 
ATOM     11  C   UNL     1      -0.493  -0.942   0.233  1.00  0.00    -0.004 C 
ATOM     12  C   UNL     1      -0.005  -1.708   1.477  1.00  0.00     0.004 C 
ATOM     13  C   UNL     1       1.499  -1.983   1.408  1.00  0.00     0.005 C 
ATOM     14  C   UNL     1       2.296  -0.675   1.256  1.00  0.00     0.001 C 
ATOM     15  C   UNL     1       3.819  -0.960   1.315  1.00  0.00     0.062 C 
ATOM     16  C   UNL     1       4.590   0.278   0.988  1.00  0.00     0.066 A 
ATOM     17  N   UNL     1       5.907   0.467   1.193  1.00  0.00    -0.180 NA
ATOM     18  N   UNL     1       6.204   1.670   0.719  1.00  0.00    -0.285 N 
ATOM     19  C   UNL     1       5.100   2.250   0.205  1.00  0.00     0.109 A 
ATOM     20  C   UNL     1       4.056   1.365   0.346  1.00  0.00    -0.006 A 
ATOM     21  C   UNL     1       2.604   1.539   0.020  1.00  0.00     0.046 C 
ATOM     22  C   UNL     1       1.859   0.161  -0.012  1.00  0.00    -0.022 C 
ATOM     23  C   UNL     1       2.248  -0.573  -1.331  1.00  0.00     0.012 C 
ATOM     24  H   UNL     1       7.157   2.093   0.751  1.00  0.00     0.189 HD
ENDROOT
BRANCH   4  25
ATOM     25  O   UNL     1      -4.868   0.293  -1.705  1.00  0.00    -0.390 OA
ATOM     26  H   UNL     1      -4.647   1.155  -2.146  1.00  0.00     0.211 HD
ENDBRANCH   4  25
TORSDOF 1
