REMARK SMILES C[C@H](CCC(=O)O)[C@H]1CC[C@H]2[C@@H]3[C@H](O)C[C@@H]4C[C@H](O)CC[C@]4(C)[C@H]3CC[C@]12C
REMARK SMILES IDX 3 1 2 2 1 3 8 4 9 5 27 6 10 7 11 8 26 9 28 10 12 11 25 12
REMARK SMILES IDX 13 13 24 14 15 15 22 16 16 17 21 18 23 19 17 20 20 21 18 22
REMARK SMILES IDX 14 23 19 25 4 27 5 28 6 29 7 30
REMARK H PARENT 14 24 19 26 7 31
REMARK Flexibility Score: inf
ROOT
ATOM      1  C   UNL     1       5.185  -1.142  -0.687  1.00  0.00     0.015 C 
ENDROOT
BRANCH   1   2
ATOM      2  C   UNL     1       4.067  -0.258  -0.050  1.00  0.00    -0.010 C 
ATOM      3  C   UNL     1       4.282   1.222  -0.422  1.00  0.00     0.008 C 
BRANCH   2   4
ATOM      4  C   UNL     1       2.651  -0.763  -0.504  1.00  0.00    -0.002 C 
ATOM      5  C   UNL     1       2.411  -2.255  -0.136  1.00  0.00     0.005 C 
ATOM      6  C   UNL     1       1.382  -0.046   0.058  1.00  0.00    -0.026 C 
ATOM      7  C   UNL     1       0.915  -2.424   0.150  1.00  0.00     0.005 C 
ATOM      8  C   UNL     1       0.308  -1.097  -0.271  1.00  0.00     0.001 C 
ATOM      9  C   UNL     1       0.955   1.247  -0.685  1.00  0.00     0.007 C 
ATOM     10  C   UNL     1       1.537   0.211   1.591  1.00  0.00     0.012 C 
ATOM     11  C   UNL     1      -1.108  -0.756   0.255  1.00  0.00     0.025 C 
ATOM     12  C   UNL     1      -0.430   1.732  -0.207  1.00  0.00     0.005 C 
ATOM     13  C   UNL     1      -2.153  -1.853  -0.142  1.00  0.00     0.118 C 
ATOM     14  C   UNL     1      -1.554   0.643  -0.279  1.00  0.00     0.001 C 
ATOM     15  C   UNL     1      -3.601  -1.323  -0.188  1.00  0.00     0.036 C 
ATOM     16  C   UNL     1      -2.944   1.106   0.355  1.00  0.00    -0.026 C 
ATOM     17  C   UNL     1      -3.803  -0.147   0.782  1.00  0.00     0.000 C 
ATOM     18  C   UNL     1      -3.701   1.950  -0.718  1.00  0.00     0.010 C 
ATOM     19  C   UNL     1      -2.723   1.974   1.627  1.00  0.00     0.012 C 
ATOM     20  C   UNL     1      -5.306   0.159   1.019  1.00  0.00     0.036 C 
ATOM     21  C   UNL     1      -5.149   2.277  -0.339  1.00  0.00     0.032 C 
ATOM     22  C   UNL     1      -5.959   1.001  -0.083  1.00  0.00     0.114 C 
BRANCH  13  23
ATOM     23  O   UNL     1      -1.855  -2.404  -1.404  1.00  0.00    -0.393 OA
ATOM     24  H   UNL     1      -1.941  -3.389  -1.326  1.00  0.00     0.210 HD
ENDBRANCH  13  23
BRANCH  22  25
ATOM     25  O   UNL     1      -6.083   0.244  -1.259  1.00  0.00    -0.393 OA
ATOM     26  H   UNL     1      -6.747   0.710  -1.832  1.00  0.00     0.210 HD
ENDBRANCH  22  25
ENDBRANCH   2   4
ENDBRANCH   1   2
BRANCH   1  27
ATOM     27  C   UNL     1       6.617  -0.871  -0.186  1.00  0.00     0.123 C 
BRANCH  27  28
ATOM     28  C   UNL     1       6.723  -0.893   1.310  1.00  0.00     0.303 C 
ATOM     29  O   UNL     1       6.493  -1.956   1.947  1.00  0.00    -0.252 OA
BRANCH  28  30
ATOM     30  O   UNL     1       7.076   0.267   1.992  1.00  0.00    -0.481 OA
ATOM     31  H   UNL     1       7.146   0.276   3.004  1.00  0.00     0.296 HD
ENDBRANCH  28  30
ENDBRANCH  27  28
ENDBRANCH   1  27
TORSDOF 7
