REMARK SMILES CC1=C(/C=C/C(C)=C/C=C/C(C)=C/C=C/C=C(C)/C=C/C=C(C)/C=C/C2=C(C)C(=O)[C@@H](O)CC2(C)C)C(C)(C)C[C@H](O)C1=O
REMARK SMILES IDX 14 1 15 2 13 3 12 4 11 5 10 6 9 7 8 8 6 9 7 10 5 11 4 12
REMARK SMILES IDX 3 13 2 14 37 15 1 16 43 17 40 18 38 19 39 20 44 21 41 22
REMARK SMILES IDX 42 23 16 25 17 26 18 27 19 28 20 29 21 30 22 31 23 32 24 33
REMARK SMILES IDX 25 34 26 35 27 36 34 37 28 38 29 39 33 40 35 41 36 42 30 43
REMARK SMILES IDX 31 44 32 45
REMARK H PARENT 42 24 32 46
REMARK Flexibility Score: inf
ROOT
ATOM      1  C   UNL     1      -0.353   0.266   0.546  1.00  0.00     0.000 C 
ATOM      2  C   UNL     1       0.530   1.123   1.066  1.00  0.00     0.000 C 
ENDROOT
BRANCH   1   3
ATOM      3  C   UNL     1      -1.800   0.559   0.551  1.00  0.00     0.003 C 
ATOM      4  C   UNL     1      -2.239  -0.949  -1.393  1.00  0.00     0.044 C 
ATOM      5  C   UNL     1      -2.687  -0.024  -0.281  1.00  0.00    -0.051 C 
BRANCH   5   6
ATOM      6  C   UNL     1      -4.135   0.248  -0.060  1.00  0.00     0.003 C 
ATOM      7  C   UNL     1      -5.117  -0.448  -0.647  1.00  0.00     0.001 C 
BRANCH   7   8
ATOM      8  C   UNL     1      -6.533  -0.151  -0.354  1.00  0.00     0.003 C 
ATOM      9  C   UNL     1      -7.563  -0.559  -1.121  1.00  0.00    -0.051 C 
ATOM     10  C   UNL     1      -7.332  -1.265  -2.439  1.00  0.00     0.044 C 
BRANCH   9  11
ATOM     11  C   UNL     1      -8.942  -0.326  -0.616  1.00  0.00     0.004 C 
ATOM     12  C   UNL     1     -10.028  -0.938  -1.108  1.00  0.00     0.005 C 
BRANCH  12  13
ATOM     13  C   UNL     1     -11.373  -0.727  -0.509  1.00  0.00    -0.036 C 
ATOM     14  C   UNL     1     -11.928   0.516  -0.462  1.00  0.00    -0.001 C 
ATOM     15  C   UNL     1     -12.054  -1.923   0.170  1.00  0.00    -0.007 C 
ATOM     16  C   UNL     1     -11.292   1.695  -1.166  1.00  0.00     0.048 C 
ATOM     17  C   UNL     1     -13.169   0.761   0.317  1.00  0.00     0.187 C 
ATOM     18  C   UNL     1     -13.587  -1.699   0.248  1.00  0.00     0.051 C 
ATOM     19  C   UNL     1     -11.458  -2.098   1.584  1.00  0.00     0.016 C 
ATOM     20  C   UNL     1     -11.820  -3.229  -0.626  1.00  0.00     0.016 C 
ATOM     21  O   UNL     1     -13.534   1.944   0.549  1.00  0.00    -0.292 OA
ATOM     22  C   UNL     1     -13.959  -0.372   0.915  1.00  0.00     0.186 C 
BRANCH  22  23
ATOM     23  O   UNL     1     -15.334  -0.145   0.737  1.00  0.00    -0.385 OA
ATOM     24  H   UNL     1     -15.616   0.497   1.442  1.00  0.00     0.211 HD
ENDBRANCH  22  23
ENDBRANCH  12  13
ENDBRANCH   9  11
ENDBRANCH   7   8
ENDBRANCH   5   6
ENDBRANCH   1   3
BRANCH   2  25
ATOM     25  C   UNL     1       1.971   0.792   1.071  1.00  0.00     0.003 C 
ATOM     26  C   UNL     1       2.973   1.695   1.088  1.00  0.00    -0.051 C 
ATOM     27  C   UNL     1       2.719   3.187   1.038  1.00  0.00     0.044 C 
BRANCH  26  28
ATOM     28  C   UNL     1       4.364   1.169   1.163  1.00  0.00     0.003 C 
ATOM     29  C   UNL     1       5.467   1.929   1.107  1.00  0.00     0.001 C 
BRANCH  29  30
ATOM     30  C   UNL     1       6.801   1.293   1.131  1.00  0.00     0.003 C 
ATOM     31  C   UNL     1       7.947   1.915   0.800  1.00  0.00    -0.051 C 
ATOM     32  C   UNL     1       7.979   3.372   0.397  1.00  0.00     0.044 C 
BRANCH  31  33
ATOM     33  C   UNL     1       9.183   1.100   0.770  1.00  0.00     0.004 C 
ATOM     34  C   UNL     1      10.143   1.274  -0.144  1.00  0.00     0.005 C 
BRANCH  34  35
ATOM     35  C   UNL     1      11.337   0.390  -0.218  1.00  0.00    -0.036 C 
ATOM     36  C   UNL     1      12.571   0.931  -0.031  1.00  0.00    -0.001 C 
ATOM     37  C   UNL     1      11.170  -1.112  -0.521  1.00  0.00    -0.007 C 
ATOM     38  C   UNL     1      12.729   2.403   0.291  1.00  0.00     0.048 C 
ATOM     39  C   UNL     1      13.799   0.106  -0.208  1.00  0.00     0.187 C 
ATOM     40  C   UNL     1      12.378  -1.608  -1.362  1.00  0.00     0.051 C 
ATOM     41  C   UNL     1       9.895  -1.379  -1.358  1.00  0.00     0.016 C 
ATOM     42  C   UNL     1      11.068  -1.913   0.796  1.00  0.00     0.016 C 
ATOM     43  O   UNL     1      14.929   0.587   0.077  1.00  0.00    -0.292 OA
ATOM     44  C   UNL     1      13.738  -1.306  -0.713  1.00  0.00     0.186 C 
BRANCH  44  45
ATOM     45  O   UNL     1      14.001  -2.187   0.347  1.00  0.00    -0.385 OA
ATOM     46  H   UNL     1      14.220  -3.067  -0.059  1.00  0.00     0.211 HD
ENDBRANCH  44  45
ENDBRANCH  34  35
ENDBRANCH  31  33
ENDBRANCH  29  30
ENDBRANCH  26  28
ENDBRANCH   2  25
TORSDOF 12
