REMARK SMILES CN1CCC(=C2c3ccccc3CCc3sccc32)CC1
REMARK SMILES IDX 1 1 2 2 3 3 4 4 5 5 20 6 21 7 6 8 19 9 15 10 18 11 16 12
REMARK SMILES IDX 17 13 14 14 7 16 12 17 8 18 11 19 9 20 10 21 13 22
REMARK H PARENT
REMARK Flexibility Score: 80.00
ROOT
ATOM      1  C   UNL     1       3.133  -0.422  -1.893  1.00  0.00     0.105 C 
ATOM      2  N   UNL     1       3.273   0.754  -1.016  1.00  0.00    -0.306 NA
ATOM      3  C   UNL     1       3.467   0.365   0.397  1.00  0.00     0.088 C 
ATOM      4  C   UNL     1       2.195  -0.245   1.010  1.00  0.00     0.047 C 
ATOM      5  C   UNL     1       0.959   0.540   0.623  1.00  0.00    -0.059 C 
ATOM      6  C   UNL     1       1.212   1.884  -0.030  1.00  0.00     0.047 C 
ATOM      7  C   UNL     1       2.173   1.734  -1.225  1.00  0.00     0.088 C 
ATOM      8  C   UNL     1      -0.291   0.023   0.779  1.00  0.00    -0.010 C 
ENDROOT
BRANCH   8   9
ATOM      9  C   UNL     1      -0.519  -1.342   1.314  1.00  0.00    -0.004 A 
ATOM     10  C   UNL     1      -1.254  -2.341   0.652  1.00  0.00     0.013 A 
ATOM     11  C   UNL     1      -0.071  -1.744   2.585  1.00  0.00     0.020 A 
ATOM     12  S   UNL     1      -1.304  -3.691   1.652  1.00  0.00    -0.148 S 
ATOM     13  C   UNL     1      -0.415  -3.045   2.920  1.00  0.00     0.066 A 
BRANCH  10  14
ATOM     14  C   UNL     1      -1.997  -2.278  -0.662  1.00  0.00     0.052 CG0
ATOM     15  G   UNL     1      -1.701  -1.043  -1.521  1.00  0.00     0.000 G0
ENDBRANCH  10  14
ENDBRANCH   8   9
BRANCH   8  16
ATOM     16  C   UNL     1      -1.490   0.724   0.275  1.00  0.00    -0.015 A 
ATOM     17  C   UNL     1      -2.182   0.215  -0.841  1.00  0.00    -0.040 A 
ATOM     18  C   UNL     1      -1.971   1.864   0.937  1.00  0.00     0.009 A 
ATOM     19  C   UNL     1      -3.348   0.862  -1.284  1.00  0.00     0.004 A 
ATOM     20  C   UNL     1      -3.124   2.507   0.479  1.00  0.00     0.001 A 
ATOM     21  C   UNL     1      -3.811   2.007  -0.629  1.00  0.00     0.000 A 
BRANCH  17  22
ATOM     22  C   UNL     1      -1.701  -1.043  -1.521  1.00  0.00     0.042 CG0
ATOM     23  G   UNL     1      -1.997  -2.278  -0.662  1.00  0.00     0.000 G0
ENDBRANCH  17  22
ENDBRANCH   8  16
TORSDOF 0
