REMARK SMILES COC(=O)C1=C(C#N)NC(C)=C(C(=O)OC(C)C)C1c1cccc([N+](=O)[O-])c1
REMARK SMILES IDX 5 1 6 2 9 3 10 4 11 5 12 6 19 7 3 9 4 10 2 11 1 12 7 13 8 14
REMARK SMILES IDX 20 15 28 16 21 17 24 18 22 19 23 20 25 21 27 22 26 23 13 24
REMARK SMILES IDX 14 25 15 26 16 27 17 28 18 29
REMARK H PARENT 9 8
REMARK Flexibility Score: inf
ROOT
ATOM      1  C   UNL     1      -1.565   1.529  -0.712  1.00  0.00     0.084 C 
ATOM      2  C   UNL     1      -1.268   2.489   0.193  1.00  0.00     0.129 C 
ATOM      3  N   UNL     1      -0.064   2.396   0.965  1.00  0.00    -0.350 N 
ATOM      4  C   UNL     1       0.971   1.451   0.658  1.00  0.00     0.024 C 
ATOM      5  C   UNL     1       2.283   1.581   1.388  1.00  0.00     0.065 C 
ATOM      6  C   UNL     1       0.746   0.501  -0.280  1.00  0.00     0.068 C 
ATOM      7  C   UNL     1      -0.659   0.310  -0.836  1.00  0.00     0.099 C 
ATOM      8  H   UNL     1       0.106   3.110   1.710  1.00  0.00     0.167 HD
ENDROOT
BRANCH   1   9
ATOM      9  C   UNL     1      -2.800   1.556  -1.552  1.00  0.00     0.337 C 
ATOM     10  O   UNL     1      -2.886   0.789  -2.551  1.00  0.00    -0.246 OA
BRANCH   9  11
ATOM     11  O   UNL     1      -3.875   2.391  -1.232  1.00  0.00    -0.466 OA
ATOM     12  C   UNL     1      -5.072   2.435  -2.000  1.00  0.00     0.282 C 
ENDBRANCH   9  11
ENDBRANCH   1   9
BRANCH   2  13
ATOM     13  C   UNL     1      -2.097   3.655   0.395  1.00  0.00     0.118 C 
ATOM     14  N   UNL     1      -2.757   4.591   0.560  1.00  0.00    -0.191 NA
ENDBRANCH   2  13
BRANCH   7  15
ATOM     15  C   UNL     1      -1.324  -0.887  -0.180  1.00  0.00    -0.029 A 
ATOM     16  C   UNL     1      -1.552  -0.914   1.209  1.00  0.00     0.090 A 
ATOM     17  C   UNL     1      -1.735  -1.980  -0.961  1.00  0.00     0.005 A 
ATOM     18  C   UNL     1      -2.174  -2.020   1.816  1.00  0.00     0.269 A 
ATOM     19  C   UNL     1      -2.352  -3.080  -0.364  1.00  0.00     0.007 A 
ATOM     20  C   UNL     1      -2.571  -3.104   1.014  1.00  0.00     0.085 A 
BRANCH  18  21
ATOM     21  N   UNL     1      -2.402  -2.046   3.237  1.00  0.00     0.062 N 
ATOM     22  O   UNL     1      -3.002  -3.133   3.831  1.00  0.00    -0.258 OA
ATOM     23  O   UNL     1      -2.056  -1.084   3.955  1.00  0.00    -0.258 OA
ENDBRANCH  18  21
ENDBRANCH   7  15
BRANCH   6  24
ATOM     24  C   UNL     1       1.805  -0.435  -0.749  1.00  0.00     0.337 C 
ATOM     25  O   UNL     1       1.477  -1.552  -1.234  1.00  0.00    -0.246 OA
BRANCH  24  26
ATOM     26  O   UNL     1       3.154  -0.063  -0.710  1.00  0.00    -0.460 OA
BRANCH  26  27
ATOM     27  C   UNL     1       4.228  -0.936  -1.059  1.00  0.00     0.170 C 
ATOM     28  C   UNL     1       4.441  -1.977   0.044  1.00  0.00     0.052 C 
ATOM     29  C   UNL     1       5.493  -0.105  -1.259  1.00  0.00     0.052 C 
ENDBRANCH  26  27
ENDBRANCH  24  26
ENDBRANCH   6  24
TORSDOF 8
