REMARK SMILES CC1=NN(c2ccc(C)c(C)c2)C(=O)/C1=N\Nc1cccc(-c2cccc(C(=O)O)c2)c1O
REMARK SMILES IDX 18 1 19 2 20 3 21 4 22 5 32 6 17 7 16 9 1 10 2 11 3 12 15 13
REMARK SMILES IDX 4 14 13 15 14 16 5 17 6 18 12 19 7 20 10 21 8 22 11 23 9 24
REMARK SMILES IDX 33 25 23 27 24 28 31 29 25 30 27 31 26 32 28 33 29 34 30 35
REMARK H PARENT 17 8 33 26 30 36
REMARK Flexibility Score: inf
ROOT
ATOM      1  C   UNL     1      -1.822  -1.329  -1.290  1.00  0.00     0.099 A 
ATOM      2  C   UNL     1      -2.151  -2.253  -2.291  1.00  0.00     0.031 A 
ATOM      3  C   UNL     1      -3.476  -2.439  -2.677  1.00  0.00     0.003 A 
ATOM      4  C   UNL     1      -4.490  -1.689  -2.085  1.00  0.00     0.013 A 
ATOM      5  C   UNL     1      -4.188  -0.736  -1.103  1.00  0.00     0.026 A 
ATOM      6  C   UNL     1      -2.846  -0.560  -0.690  1.00  0.00     0.148 A 
ENDROOT
BRANCH   1   7
ATOM      7  N   UNL     1      -0.442  -1.185  -0.910  1.00  0.00    -0.274 N 
ATOM      8  H   UNL     1       0.286  -1.582  -1.545  1.00  0.00     0.190 HD
BRANCH   7   9
ATOM      9  N   UNL     1      -0.085  -0.725   0.369  1.00  0.00    -0.168 NA
ATOM     10  C   UNL     1       0.636   0.236   3.224  1.00  0.00     0.071 C 
ATOM     11  C   UNL     1       1.545   0.008   2.064  1.00  0.00     0.092 C 
ATOM     12  N   UNL     1       2.817   0.272   2.094  1.00  0.00    -0.167 NA
ATOM     13  C   UNL     1       1.132  -0.452   0.738  1.00  0.00     0.173 C 
ATOM     14  N   UNL     1       3.394   0.022   0.838  1.00  0.00    -0.195 N 
ATOM     15  C   UNL     1       2.366  -0.444  -0.030  1.00  0.00     0.301 C 
ATOM     16  O   UNL     1       2.534  -0.813  -1.222  1.00  0.00    -0.265 OA
BRANCH  14  17
ATOM     17  C   UNL     1       4.793   0.195   0.554  1.00  0.00     0.069 A 
ATOM     18  C   UNL     1       5.733   0.081   1.590  1.00  0.00     0.029 A 
ATOM     19  C   UNL     1       5.238   0.506  -0.740  1.00  0.00     0.032 A 
ATOM     20  C   UNL     1       7.094   0.239   1.332  1.00  0.00     0.006 A 
ATOM     21  C   UNL     1       6.606   0.684  -1.009  1.00  0.00    -0.046 A 
ATOM     22  C   UNL     1       7.547   0.528   0.035  1.00  0.00    -0.048 A 
ATOM     23  C   UNL     1       7.043   1.016  -2.412  1.00  0.00     0.044 C 
ATOM     24  C   UNL     1       9.024   0.701  -0.207  1.00  0.00     0.044 C 
ENDBRANCH  14  17
ENDBRANCH   7   9
ENDBRANCH   1   7
BRANCH   6  25
ATOM     25  O   UNL     1      -2.515   0.361   0.310  1.00  0.00    -0.505 OA
ATOM     26  H   UNL     1      -3.204   0.878   0.841  1.00  0.00     0.293 HD
ENDBRANCH   6  25
BRANCH   5  27
ATOM     27  C   UNL     1      -5.288   0.083  -0.550  1.00  0.00    -0.014 A 
ATOM     28  C   UNL     1      -5.297   1.472  -0.738  1.00  0.00     0.009 A 
ATOM     29  C   UNL     1      -6.355  -0.531   0.127  1.00  0.00     0.024 A 
ATOM     30  C   UNL     1      -6.349   2.242  -0.239  1.00  0.00     0.002 A 
ATOM     31  C   UNL     1      -7.418   0.239   0.634  1.00  0.00     0.060 A 
ATOM     32  C   UNL     1      -7.403   1.631   0.446  1.00  0.00     0.016 A 
BRANCH  31  33
ATOM     33  C   UNL     1      -8.538  -0.404   1.354  1.00  0.00     0.335 C 
ATOM     34  O   UNL     1      -8.512  -1.640   1.601  1.00  0.00    -0.246 OA
BRANCH  33  35
ATOM     35  O   UNL     1      -9.631   0.352   1.772  1.00  0.00    -0.478 OA
ATOM     36  H   UNL     1     -10.397  -0.076   2.277  1.00  0.00     0.297 HD
ENDBRANCH  33  35
ENDBRANCH  31  33
ENDBRANCH   5  27
TORSDOF 7
