REMARK SMILES COc1cc(N)c(Cl)cc1C(=O)N[C@@H]1CCNC[C@@H]1OC
REMARK SMILES IDX 13 1 11 2 12 3 14 5 19 6 18 7 17 8 15 9 16 10 20 12 21 13
REMARK SMILES IDX 10 14 9 15 3 16 7 17 4 18 8 19 5 20 2 21 1 22 6 23
REMARK H PARENT 13 4 17 11 6 24 6 25
REMARK Flexibility Score: inf
ROOT
ATOM      1  N   UNL     1       0.444   1.032   0.414  1.00  0.00    -0.346 N 
ATOM      2  C   UNL     1      -0.220   0.288   1.449  1.00  0.00     0.255 C 
ATOM      3  O   UNL     1       0.352   0.107   2.559  1.00  0.00    -0.269 OA
ATOM      4  H   UNL     1      -0.142   1.421  -0.357  1.00  0.00     0.164 HD
ENDROOT
BRANCH   1   5
ATOM      5  C   UNL     1       1.873   1.374   0.478  1.00  0.00     0.113 C 
ATOM      6  C   UNL     1       2.755   0.198  -0.008  1.00  0.00     0.154 C 
ATOM      7  C   UNL     1       2.621   0.026  -1.528  1.00  0.00     0.115 C 
ATOM      8  N   UNL     1       3.018   1.260  -2.218  1.00  0.00    -0.314 NA
ATOM      9  C   UNL     1       2.170   2.640  -0.352  1.00  0.00     0.043 C 
ATOM     10  C   UNL     1       2.118   2.363  -1.862  1.00  0.00     0.083 C 
ATOM     11  H   UNL     1       2.925   1.093  -3.247  1.00  0.00     0.122 HD
BRANCH   6  12
ATOM     12  O   UNL     1       2.369  -1.014   0.620  1.00  0.00    -0.378 OA
ATOM     13  C   UNL     1       3.188  -1.279   1.738  1.00  0.00     0.195 C 
ENDBRANCH   6  12
ENDBRANCH   1   5
BRANCH   2  14
ATOM     14  C   UNL     1      -1.592  -0.234   1.248  1.00  0.00     0.083 A 
ATOM     15  C   UNL     1      -2.488  -0.228   2.328  1.00  0.00     0.040 A 
ATOM     16  C   UNL     1      -2.008  -0.753   0.003  1.00  0.00     0.133 A 
ATOM     17  C   UNL     1      -3.796  -0.698   2.180  1.00  0.00     0.065 A 
ATOM     18  C   UNL     1      -3.330  -1.218  -0.142  1.00  0.00     0.074 A 
ATOM     19  Cl  UNL     1      -4.866  -0.645   3.576  1.00  0.00    -0.082 Cl
ATOM     20  C   UNL     1      -4.226  -1.192   0.935  1.00  0.00     0.054 A 
BRANCH  16  21
ATOM     21  O   UNL     1      -1.087  -0.820  -1.056  1.00  0.00    -0.496 OA
ATOM     22  C   UNL     1      -1.381  -1.315  -2.358  1.00  0.00     0.278 C 
ENDBRANCH  16  21
BRANCH  20  23
ATOM     23  N   UNL     1      -5.562  -1.677   0.749  1.00  0.00    -0.397 N 
ATOM     24  H   UNL     1      -6.263  -1.679   1.521  1.00  0.00     0.156 HD
ATOM     25  H   UNL     1      -5.869  -2.044  -0.180  1.00  0.00     0.156 HD
ENDBRANCH  20  23
ENDBRANCH   2  14
TORSDOF 5
