REMARK SMILES O=C(O)c1nn(Cc2ccc(Cl)cc2Cl)c2ccccc12
REMARK SMILES IDX 4 1 5 2 6 3 16 4 21 5 20 6 19 7 18 8 17 9 2 10 1 11 3 12
REMARK SMILES IDX 7 14 8 15 14 16 9 17 15 18 13 19 10 20 11 21 12 22
REMARK H PARENT 3 13
REMARK Flexibility Score: inf
ROOT
ATOM      1  C   UNL     1      -1.552   0.628   1.489  1.00  0.00     0.178 A 
ATOM      2  N   UNL     1      -0.331   0.045   1.533  1.00  0.00    -0.164 NA
ATOM      3  N   UNL     1      -0.219  -0.777   0.495  1.00  0.00    -0.260 N 
ATOM      4  C   UNL     1      -1.367  -0.736  -0.214  1.00  0.00     0.070 A 
ATOM      5  C   UNL     1      -2.232   0.145   0.382  1.00  0.00     0.035 A 
ATOM      6  C   UNL     1      -3.505   0.394  -0.136  1.00  0.00     0.013 A 
ATOM      7  C   UNL     1      -3.883  -0.295  -1.303  1.00  0.00     0.001 A 
ATOM      8  C   UNL     1      -2.995  -1.205  -1.917  1.00  0.00     0.002 A 
ATOM      9  C   UNL     1      -1.720  -1.437  -1.372  1.00  0.00     0.028 A 
ENDROOT
BRANCH   1  10
ATOM     10  C   UNL     1      -2.017   1.604   2.486  1.00  0.00     0.357 C 
ATOM     11  O   UNL     1      -1.260   1.931   3.438  1.00  0.00    -0.244 OA
BRANCH  10  12
ATOM     12  O   UNL     1      -3.284   2.170   2.391  1.00  0.00    -0.476 OA
ATOM     13  H   UNL     1      -3.606   2.842   3.077  1.00  0.00     0.297 HD
ENDBRANCH  10  12
ENDBRANCH   1  10
BRANCH   3  14
ATOM     14  C   UNL     1       0.974  -1.587   0.242  1.00  0.00     0.182 C 
BRANCH  14  15
ATOM     15  C   UNL     1       2.185  -0.699   0.103  1.00  0.00    -0.008 A 
ATOM     16  C   UNL     1       2.451   0.005  -1.092  1.00  0.00     0.047 A 
ATOM     17  C   UNL     1       3.037  -0.520   1.207  1.00  0.00     0.009 A 
ATOM     18  Cl  UNL     1       1.409  -0.138  -2.504  1.00  0.00    -0.084 Cl
ATOM     19  C   UNL     1       3.566   0.848  -1.173  1.00  0.00     0.041 A 
ATOM     20  C   UNL     1       4.147   0.324   1.116  1.00  0.00     0.021 A 
ATOM     21  C   UNL     1       4.414   1.006  -0.074  1.00  0.00     0.042 A 
ATOM     22  Cl  UNL     1       5.807   2.066  -0.184  1.00  0.00    -0.084 Cl
ENDBRANCH  14  15
ENDBRANCH   3  14
TORSDOF 4
