REMARK SMILES O=C(NC[C@H]1CN(c2ccc(N3CCOCC3=O)cc2)C(=O)O1)c1ccc(Cl)s1
REMARK SMILES IDX 5 1 6 2 7 3 21 4 22 5 23 6 4 7 3 8 2 9 1 10 24 12 28 13
REMARK SMILES IDX 27 14 26 15 29 16 25 17 8 18 9 19 20 20 10 21 19 22 11 23
REMARK SMILES IDX 12 24 13 25 17 26 14 27 16 28 18 29 15 30
REMARK H PARENT 3 11
REMARK Flexibility Score: inf
ROOT
ATOM      1  C   UNL     1       2.514  -0.147   1.218  1.00  0.00     0.217 C 
ATOM      2  C   UNL     1       1.084   0.464   1.274  1.00  0.00     0.176 C 
ATOM      3  N   UNL     1       0.213  -0.531   0.654  1.00  0.00    -0.274 N 
ATOM      4  C   UNL     1       1.022  -1.652   0.348  1.00  0.00     0.414 C 
ATOM      5  O   UNL     1       0.583  -2.741  -0.105  1.00  0.00    -0.224 OA
ATOM      6  O   UNL     1       2.345  -1.449   0.664  1.00  0.00    -0.442 OA
ENDROOT
BRANCH   1   7
ATOM      7  C   UNL     1       3.460   0.680   0.338  1.00  0.00     0.163 C 
BRANCH   7   8
ATOM      8  N   UNL     1       4.798   0.089   0.301  1.00  0.00    -0.348 N 
ATOM      9  C   UNL     1       5.853   0.683  -0.471  1.00  0.00     0.261 C 
ATOM     10  O   UNL     1       5.633   1.737  -1.128  1.00  0.00    -0.268 OA
ATOM     11  H   UNL     1       4.991  -0.781   0.846  1.00  0.00     0.163 HD
BRANCH   9  12
ATOM     12  C   UNL     1       7.196   0.076  -0.508  1.00  0.00     0.093 A 
ATOM     13  Cl  UNL     1      10.479  -2.497   0.152  1.00  0.00    -0.072 Cl
ATOM     14  C   UNL     1       9.259  -1.309  -0.253  1.00  0.00     0.094 A 
ATOM     15  C   UNL     1       9.443  -0.207  -1.076  1.00  0.00     0.033 A 
ATOM     16  S   UNL     1       7.673  -1.326   0.298  1.00  0.00    -0.118 S 
ATOM     17  C   UNL     1       8.287   0.570  -1.220  1.00  0.00     0.027 A 
ENDBRANCH   9  12
ENDBRANCH   7   8
ENDBRANCH   1   7
BRANCH   3  18
ATOM     18  C   UNL     1      -1.188  -0.354   0.367  1.00  0.00     0.047 A 
ATOM     19  C   UNL     1      -1.977   0.478   1.179  1.00  0.00     0.028 A 
ATOM     20  C   UNL     1      -1.783  -0.982  -0.742  1.00  0.00     0.028 A 
ATOM     21  C   UNL     1      -3.334   0.663   0.902  1.00  0.00     0.028 A 
ATOM     22  C   UNL     1      -3.141  -0.796  -1.019  1.00  0.00     0.028 A 
ATOM     23  C   UNL     1      -3.929   0.032  -0.202  1.00  0.00     0.044 A 
BRANCH  23  24
ATOM     24  N   UNL     1      -5.333   0.215  -0.479  1.00  0.00    -0.308 N 
ATOM     25  C   UNL     1      -6.156  -0.928  -0.894  1.00  0.00     0.154 C 
ATOM     26  C   UNL     1      -5.929   1.525  -0.476  1.00  0.00     0.253 C 
ATOM     27  C   UNL     1      -7.637  -0.656  -0.613  1.00  0.00     0.183 C 
ATOM     28  C   UNL     1      -7.427   1.650  -0.498  1.00  0.00     0.260 C 
ATOM     29  O   UNL     1      -5.215   2.562  -0.417  1.00  0.00    -0.272 OA
ATOM     30  O   UNL     1      -8.026   0.573  -1.195  1.00  0.00    -0.370 OA
ENDBRANCH  23  24
ENDBRANCH   3  18
TORSDOF 5
