REMARK SMILES CC(C)(F)C[C@H](N[C@@H](c1ccc(-c2ccc(S(C)(=O)=O)cc2)cc1)C(F)(F)F)C(=O)NC1(C#N)CC1
REMARK SMILES IDX 7 1 6 3 5 4 2 5 1 6 3 7 4 8 29 9 30 10 31 11 32 13 35 14
REMARK SMILES IDX 36 15 33 16 34 17 8 18 9 19 10 20 24 21 11 22 23 23 12 24
REMARK SMILES IDX 13 25 14 26 22 27 15 28 21 29 16 30 17 31 18 32 19 33 20 34
REMARK SMILES IDX 25 35 26 36 27 37 28 38
REMARK H PARENT 7 2 31 12
REMARK Flexibility Score: inf
ROOT
ATOM      1  N   UNL     1      -2.043  -0.229   1.289  1.00  0.00    -0.291 NA
ATOM      2  H   UNL     1      -1.706   0.459   0.574  1.00  0.00     0.124 HD
ENDROOT
BRANCH   1   3
ATOM      3  C   UNL     1      -3.373  -0.722   0.873  1.00  0.00     0.147 C 
BRANCH   3   4
ATOM      4  C   UNL     1      -4.385   0.447   0.941  1.00  0.00     0.069 C 
BRANCH   4   5
ATOM      5  C   UNL     1      -5.856   0.091   0.577  1.00  0.00     0.107 C 
ATOM      6  C   UNL     1      -6.728   1.347   0.721  1.00  0.00     0.048 C 
ATOM      7  C   UNL     1      -6.423  -1.027   1.470  1.00  0.00     0.048 C 
ATOM      8  F   UNL     1      -5.924  -0.320  -0.748  1.00  0.00    -0.244 F 
ENDBRANCH   4   5
ENDBRANCH   3   4
BRANCH   3   9
ATOM      9  C   UNL     1      -3.325  -1.350  -0.504  1.00  0.00     0.238 C 
ATOM     10  O   UNL     1      -3.646  -2.563  -0.635  1.00  0.00    -0.273 OA
ATOM     11  N   UNL     1      -2.912  -0.593  -1.651  1.00  0.00    -0.336 N 
ATOM     12  H   UNL     1      -2.669   0.419  -1.550  1.00  0.00     0.165 HD
BRANCH  11  13
ATOM     13  C   UNL     1      -2.692  -1.229  -2.942  1.00  0.00     0.127 C 
ATOM     14  C   UNL     1      -3.942  -1.695  -3.661  1.00  0.00     0.048 C 
ATOM     15  C   UNL     1      -3.198  -0.452  -4.143  1.00  0.00     0.048 C 
BRANCH  13  16
ATOM     16  C   UNL     1      -1.467  -2.016  -3.122  1.00  0.00     0.091 C 
ATOM     17  N   UNL     1      -0.499  -2.632  -3.261  1.00  0.00    -0.196 NA
ENDBRANCH  13  16
ENDBRANCH  11  13
ENDBRANCH   3   9
ENDBRANCH   1   3
BRANCH   1  18
ATOM     18  C   UNL     1      -1.037  -1.300   1.482  1.00  0.00     0.191 C 
BRANCH  18  19
ATOM     19  C   UNL     1       0.362  -0.754   1.233  1.00  0.00    -0.022 A 
ATOM     20  C   UNL     1       0.831   0.368   1.939  1.00  0.00     0.006 A 
ATOM     21  C   UNL     1       1.203  -1.363   0.287  1.00  0.00     0.006 A 
ATOM     22  C   UNL     1       2.118   0.863   1.710  1.00  0.00     0.009 A 
ATOM     23  C   UNL     1       2.488  -0.867   0.056  1.00  0.00     0.009 A 
ATOM     24  C   UNL     1       2.963   0.250   0.768  1.00  0.00    -0.018 A 
BRANCH  24  25
ATOM     25  C   UNL     1       4.338   0.767   0.538  1.00  0.00    -0.018 A 
ATOM     26  C   UNL     1       5.411  -0.119   0.326  1.00  0.00     0.010 A 
ATOM     27  C   UNL     1       4.592   2.151   0.538  1.00  0.00     0.010 A 
ATOM     28  C   UNL     1       6.705   0.367   0.129  1.00  0.00     0.021 A 
ATOM     29  C   UNL     1       5.888   2.634   0.347  1.00  0.00     0.021 A 
ATOM     30  C   UNL     1       6.951   1.745   0.149  1.00  0.00     0.067 A 
BRANCH  30  31
ATOM     31  S   UNL     1       8.581   2.358  -0.099  1.00  0.00     0.175 S 
ATOM     32  C   UNL     1       8.815   2.734  -1.822  1.00  0.00     0.163 C 
ATOM     33  O   UNL     1       8.786   3.598   0.723  1.00  0.00    -0.224 OA
ATOM     34  O   UNL     1       9.585   1.324   0.327  1.00  0.00    -0.224 OA
ENDBRANCH  30  31
ENDBRANCH  24  25
ENDBRANCH  18  19
BRANCH  18  35
ATOM     35  C   UNL     1      -1.135  -1.899   2.901  1.00  0.00     0.407 C 
ATOM     36  F   UNL     1      -2.226  -2.739   2.989  1.00  0.00    -0.169 F 
ATOM     37  F   UNL     1      -0.002  -2.644   3.192  1.00  0.00    -0.169 F 
ATOM     38  F   UNL     1      -1.267  -0.901   3.847  1.00  0.00    -0.169 F 
ENDBRANCH  18  35
ENDBRANCH   1  18
TORSDOF 11
