REMARK SMILES CN1CCC(=C2c3ccccc3CCn3c(C=O)cnc32)CC1
REMARK SMILES IDX 1 1 2 2 3 3 4 4 5 5 22 6 23 7 6 8 21 9 20 10 15 11 19 12
REMARK SMILES IDX 16 13 14 14 17 16 18 17 7 18 12 19 8 20 11 21 9 22 10 23
REMARK SMILES IDX 13 24
REMARK H PARENT
REMARK Flexibility Score: 90.00
ROOT
ATOM      1  C   UNL     1       5.308   0.648  -0.568  1.00  0.00     0.105 C 
ATOM      2  N   UNL     1       3.863   0.538  -0.824  1.00  0.00    -0.306 NA
ATOM      3  C   UNL     1       3.141   1.583  -0.075  1.00  0.00     0.088 C 
ATOM      4  C   UNL     1       1.648   1.552  -0.415  1.00  0.00     0.047 C 
ATOM      5  C   UNL     1       1.074   0.164  -0.193  1.00  0.00    -0.056 C 
ATOM      6  C   UNL     1       1.904  -0.966  -0.777  1.00  0.00     0.047 C 
ATOM      7  C   UNL     1       3.383  -0.796  -0.418  1.00  0.00     0.088 C 
ATOM      8  C   UNL     1      -0.213  -0.031   0.213  1.00  0.00     0.024 C 
ENDROOT
BRANCH   8   9
ATOM      9  C   UNL     1      -1.106   1.082   0.611  1.00  0.00     0.141 A 
ATOM     10  N   UNL     1      -0.780   1.942   1.601  1.00  0.00    -0.236 NA
ATOM     11  N   UNL     1      -2.367   1.282   0.135  1.00  0.00    -0.321 N 
ATOM     12  C   UNL     1      -1.860   2.732   1.738  1.00  0.00     0.143 A 
ATOM     13  C   UNL     1      -2.832   2.329   0.850  1.00  0.00     0.101 A 
BRANCH  11  14
ATOM     14  C   UNL     1      -3.150   0.537  -0.872  1.00  0.00     0.129 CG0
ATOM     15  G   UNL     1      -2.359  -0.529  -1.640  1.00  0.00     0.000 G0
ENDBRANCH  11  14
BRANCH  13  16
ATOM     16  C   UNL     1      -4.173   2.922   0.723  1.00  0.00     0.279 C 
ATOM     17  O   UNL     1      -4.510   3.898   1.443  1.00  0.00    -0.296 OA
ENDBRANCH  13  16
ENDBRANCH   8   9
BRANCH   8  18
ATOM     18  C   UNL     1      -0.846  -1.366   0.192  1.00  0.00    -0.011 A 
ATOM     19  C   UNL     1      -1.894  -1.619  -0.710  1.00  0.00    -0.038 A 
ATOM     20  C   UNL     1      -0.471  -2.348   1.122  1.00  0.00     0.009 A 
ATOM     21  C   UNL     1      -2.539  -2.867  -0.689  1.00  0.00     0.004 A 
ATOM     22  C   UNL     1      -1.110  -3.591   1.126  1.00  0.00     0.001 A 
ATOM     23  C   UNL     1      -2.141  -3.850   0.220  1.00  0.00     0.000 A 
BRANCH  19  24
ATOM     24  C   UNL     1      -2.359  -0.529  -1.640  1.00  0.00     0.058 CG0
ATOM     25  G   UNL     1      -3.150   0.537  -0.872  1.00  0.00     0.000 G0
ENDBRANCH  19  24
ENDBRANCH   8  18
TORSDOF 1
