REMARK SMILES COC(=O)[C@H](Cc1cccc(C(=N)N)c1)[C@@H](C)NC(=O)c1ccc(-c2cc[n+]([O-])cc2)cc1
REMARK SMILES IDX 16 1 17 2 5 3 3 4 4 5 2 6 1 7 6 8 7 9 15 10 8 11 11 12 9 13
REMARK SMILES IDX 10 14 12 15 14 16 13 17 18 21 19 22 20 24 21 25 22 26 33 27
REMARK SMILES IDX 23 28 32 29 24 30 25 31 26 32 31 33 27 34 30 35 28 36 29 37
REMARK H PARENT 14 18 14 19 13 20 18 23
REMARK Flexibility Score: inf
ROOT
ATOM      1  C   UNL     1      -1.389  -1.639   0.943  1.00  0.00     0.093 C 
ATOM      2  C   UNL     1      -2.235  -2.176  -0.229  1.00  0.00     0.032 C 
ENDROOT
BRANCH   1   3
ATOM      3  C   UNL     1      -1.943  -0.342   1.617  1.00  0.00     0.125 C 
BRANCH   3   4
ATOM      4  C   UNL     1      -3.323  -0.512   2.219  1.00  0.00     0.311 C 
ATOM      5  O   UNL     1      -3.929   0.495   2.680  1.00  0.00    -0.252 OA
BRANCH   4   6
ATOM      6  O   UNL     1      -3.877  -1.787   2.373  1.00  0.00    -0.469 OA
ATOM      7  C   UNL     1      -5.168  -2.001   2.930  1.00  0.00     0.282 C 
ENDBRANCH   4   6
ENDBRANCH   3   4
BRANCH   3   8
ATOM      8  C   UNL     1      -1.799   0.954   0.768  1.00  0.00     0.053 C 
BRANCH   8   9
ATOM      9  C   UNL     1      -2.478   0.928  -0.582  1.00  0.00    -0.046 A 
ATOM     10  C   UNL     1      -3.879   0.916  -0.685  1.00  0.00     0.015 A 
ATOM     11  C   UNL     1      -1.706   0.954  -1.756  1.00  0.00     0.004 A 
ATOM     12  C   UNL     1      -4.510   0.876  -1.942  1.00  0.00     0.016 A 
ATOM     13  C   UNL     1      -2.324   0.935  -3.007  1.00  0.00     0.001 A 
ATOM     14  C   UNL     1      -3.716   0.893  -3.102  1.00  0.00     0.012 A 
BRANCH  12  15
ATOM     15  C   UNL     1      -5.990   0.833  -2.046  1.00  0.00     0.122 C 
ATOM     16  N   UNL     1      -6.784   0.259  -1.000  1.00  0.00    -0.384 N 
ATOM     17  N   UNL     1      -6.571   1.304  -3.105  1.00  0.00    -0.284 NA
ATOM     18  H   UNL     1      -6.348  -0.266  -0.211  1.00  0.00     0.158 HD
ATOM     19  H   UNL     1      -7.827   0.286  -1.050  1.00  0.00     0.158 HD
ATOM     20  H   UNL     1      -7.610   1.285  -3.218  1.00  0.00     0.189 HD
ENDBRANCH  12  15
ENDBRANCH   8   9
ENDBRANCH   3   8
ENDBRANCH   1   3
BRANCH   1  21
ATOM     21  N   UNL     1       0.001  -1.438   0.511  1.00  0.00    -0.349 N 
ATOM     22  C   UNL     1       1.086  -1.323   1.447  1.00  0.00     0.251 C 
ATOM     23  H   UNL     1       0.218  -1.417  -0.510  1.00  0.00     0.164 HD
ATOM     24  O   UNL     1       0.920  -1.692   2.642  1.00  0.00    -0.269 OA
BRANCH  22  25
ATOM     25  C   UNL     1       2.403  -0.789   1.027  1.00  0.00     0.039 A 
ATOM     26  C   UNL     1       3.559  -1.104   1.761  1.00  0.00     0.014 A 
ATOM     27  C   UNL     1       2.518   0.062  -0.086  1.00  0.00     0.014 A 
ATOM     28  C   UNL     1       4.804  -0.596   1.381  1.00  0.00     0.009 A 
ATOM     29  C   UNL     1       3.763   0.571  -0.466  1.00  0.00     0.009 A 
ATOM     30  C   UNL     1       4.921   0.246   0.262  1.00  0.00    -0.018 A 
BRANCH  30  31
ATOM     31  C   UNL     1       6.244   0.789  -0.141  1.00  0.00    -0.006 A 
ATOM     32  C   UNL     1       6.370   2.116  -0.584  1.00  0.00     0.081 A 
ATOM     33  C   UNL     1       7.395  -0.015  -0.086  1.00  0.00     0.081 A 
ATOM     34  C   UNL     1       7.624   2.606  -0.957  1.00  0.00     0.321 A 
ATOM     35  C   UNL     1       8.629   0.515  -0.469  1.00  0.00     0.321 A 
ATOM     36  N   UNL     1       8.722   1.804  -0.894  1.00  0.00    -0.179 N 
ATOM     37  O   UNL     1       9.947   2.307  -1.267  1.00  0.00    -0.619 OA
ENDBRANCH  30  31
ENDBRANCH  22  25
ENDBRANCH   1  21
TORSDOF 9
