REMARK SMILES c1ccc2c(CC3=NCCN3)cccc2c1
REMARK SMILES IDX 6 1 7 2 8 3 11 4 9 5 10 6 5 8 12 9 4 10 13 11 15 12 3 13
REMARK SMILES IDX 14 14 16 15 2 16 1 17
REMARK H PARENT 11 7
REMARK Flexibility Score: inf
ROOT
ATOM      1  C   UNL     1      -0.775  -0.749  -1.593  1.00  0.00     0.110 C 
ENDROOT
BRANCH   1   2
ATOM      2  C   UNL     1      -1.910  -0.275  -0.738  1.00  0.00     0.101 C 
ATOM      3  N   UNL     1      -2.480   0.867  -0.903  1.00  0.00    -0.271 NA
ATOM      4  N   UNL     1      -2.448  -1.035   0.326  1.00  0.00    -0.372 N 
ATOM      5  C   UNL     1      -3.536   1.036   0.089  1.00  0.00     0.165 C 
ATOM      6  C   UNL     1      -3.511  -0.254   0.925  1.00  0.00     0.137 C 
ATOM      7  H   UNL     1      -2.133  -1.983   0.629  1.00  0.00     0.161 HD
ENDBRANCH   1   2
BRANCH   1   8
ATOM      8  C   UNL     1       0.479  -0.916  -0.762  1.00  0.00    -0.033 A 
ATOM      9  C   UNL     1       0.834  -2.213  -0.353  1.00  0.00     0.005 A 
ATOM     10  C   UNL     1       1.280   0.185  -0.348  1.00  0.00    -0.015 A 
ATOM     11  C   UNL     1       1.966  -2.433   0.430  1.00  0.00     0.001 A 
ATOM     12  C   UNL     1       2.432  -0.056   0.451  1.00  0.00    -0.018 A 
ATOM     13  C   UNL     1       0.971   1.518  -0.700  1.00  0.00     0.009 A 
ATOM     14  C   UNL     1       2.763  -1.363   0.829  1.00  0.00     0.009 A 
ATOM     15  C   UNL     1       3.237   1.017   0.867  1.00  0.00     0.009 A 
ATOM     16  C   UNL     1       1.782   2.572  -0.275  1.00  0.00     0.001 A 
ATOM     17  C   UNL     1       2.911   2.323   0.504  1.00  0.00     0.001 A 
ENDBRANCH   1   8
TORSDOF 2
