REMARK SMILES C[C@]12CCC(=O)C=C1CC[C@@H]1[C@@H]2CC[C@@]2(C)[C@H]1CC[C@]2(C)O
REMARK SMILES IDX 17 1 18 2 19 3 20 4 21 5 15 6 16 7 14 8 13 9 12 10 11 11
REMARK SMILES IDX 10 12 9 13 8 14 7 15 5 16 6 17 4 18 3 19 2 20 1 21 22 22
REMARK H PARENT 22 23
REMARK Flexibility Score: inf
ROOT
ATOM      1  C   UNL     1       1.570   0.188   0.619  1.00  0.00     0.001 C 
ATOM      2  C   UNL     1       2.622   0.933   1.433  1.00  0.00     0.007 C 
ATOM      3  C   UNL     1       3.963   0.558   0.774  1.00  0.00     0.036 C 
ATOM      4  C   UNL     1       3.644  -0.207  -0.542  1.00  0.00     0.068 C 
ATOM      5  C   UNL     1       3.905  -1.722  -0.340  1.00  0.00     0.042 C 
ATOM      6  C   UNL     1       2.144   0.163  -0.814  1.00  0.00    -0.001 C 
ATOM      7  C   UNL     1       2.100   1.563  -1.522  1.00  0.00     0.015 C 
ATOM      8  C   UNL     1       1.310  -0.845  -1.648  1.00  0.00     0.010 C 
ATOM      9  C   UNL     1      -0.198  -0.489  -1.636  1.00  0.00     0.005 C 
ATOM     10  C   UNL     1      -0.756  -0.335  -0.189  1.00  0.00     0.002 C 
ATOM     11  C   UNL     1       0.099   0.665   0.662  1.00  0.00    -0.003 C 
ATOM     12  C   UNL     1      -0.452   0.840   2.108  1.00  0.00     0.008 C 
ATOM     13  C   UNL     1      -1.632  -0.073   2.468  1.00  0.00     0.032 C 
ATOM     14  C   UNL     1      -2.692  -0.119   1.387  1.00  0.00    -0.060 C 
ATOM     15  C   UNL     1      -3.954  -0.414   1.745  1.00  0.00     0.047 C 
ATOM     16  C   UNL     1      -4.983  -0.751   0.750  1.00  0.00     0.155 C 
ATOM     17  O   UNL     1      -6.177  -0.901   1.122  1.00  0.00    -0.295 OA
ATOM     18  C   UNL     1      -4.635  -0.921  -0.699  1.00  0.00     0.081 C 
ATOM     19  C   UNL     1      -3.118  -1.050  -0.912  1.00  0.00     0.019 C 
ATOM     20  C   UNL     1      -2.292  -0.014  -0.088  1.00  0.00    -0.008 C 
ATOM     21  C   UNL     1      -2.612   1.418  -0.591  1.00  0.00     0.016 C 
ENDROOT
BRANCH   4  22
ATOM     22  O   UNL     1       4.498   0.255  -1.563  1.00  0.00    -0.390 OA
ATOM     23  H   UNL     1       4.244  -0.217  -2.399  1.00  0.00     0.211 HD
ENDBRANCH   4  22
TORSDOF 1
