REMARK SMILES O=C1c2ccccc2S(=O)(=O)N1CCCCNC[C@H]1CCc2ccccc2O1
REMARK SMILES IDX 15 1 14 2 13 3 12 4 1 5 2 6 3 7 9 8 8 9 4 10 10 11 11 12
REMARK SMILES IDX 7 13 5 14 6 15 16 16 17 17 18 19 19 20 20 21 28 22 21 23
REMARK SMILES IDX 27 24 22 25 26 26 23 27 25 28 24 29
REMARK H PARENT 17 18
REMARK Flexibility Score: inf
ROOT
ATOM      1  C   UNL     1       1.169  -0.117   1.551  1.00  0.00     0.017 C 
ENDROOT
BRANCH   1   2
ATOM      2  C   UNL     1       1.051  -1.314   0.587  1.00  0.00     0.024 C 
BRANCH   2   3
ATOM      3  C   UNL     1       1.698  -1.074  -0.784  1.00  0.00     0.139 C 
BRANCH   3   4
ATOM      4  N   UNL     1       3.123  -0.774  -0.654  1.00  0.00    -0.231 N 
ATOM      5  O   UNL     1       3.908  -2.905   0.011  1.00  0.00    -0.268 OA
ATOM      6  C   UNL     1       4.151  -1.724  -0.352  1.00  0.00     0.269 C 
ATOM      7  C   UNL     1       5.507  -1.191  -0.534  1.00  0.00     0.061 A 
ATOM      8  S   UNL     1       3.862   0.696  -1.180  1.00  0.00     0.267 S 
ATOM      9  C   UNL     1       5.492   0.120  -0.986  1.00  0.00     0.100 A 
ATOM     10  C   UNL     1       6.716  -1.854  -0.312  1.00  0.00     0.015 A 
ATOM     11  O   UNL     1       3.546   1.840  -0.259  1.00  0.00    -0.201 OA
ATOM     12  O   UNL     1       3.530   1.003  -2.613  1.00  0.00    -0.201 OA
ATOM     13  C   UNL     1       6.673   0.819  -1.230  1.00  0.00     0.023 A 
ATOM     14  C   UNL     1       7.917  -1.166  -0.552  1.00  0.00     0.001 A 
ATOM     15  C   UNL     1       7.895   0.166  -1.009  1.00  0.00     0.001 A 
ENDBRANCH   3   4
ENDBRANCH   2   3
ENDBRANCH   1   2
BRANCH   1  16
ATOM     16  C   UNL     1       0.397   1.128   1.088  1.00  0.00     0.081 C 
BRANCH  16  17
ATOM     17  N   UNL     1      -1.023   0.815   0.891  1.00  0.00    -0.313 NA
ATOM     18  H   UNL     1      -1.433   0.589   1.828  1.00  0.00     0.122 HD
BRANCH  17  19
ATOM     19  C   UNL     1      -1.737   1.979   0.350  1.00  0.00     0.126 C 
BRANCH  19  20
ATOM     20  C   UNL     1      -3.172   1.604  -0.042  1.00  0.00     0.187 C 
ATOM     21  C   UNL     1      -3.203   0.546  -1.160  1.00  0.00     0.051 C 
ATOM     22  O   UNL     1      -3.886   1.135   1.103  1.00  0.00    -0.489 OA
ATOM     23  C   UNL     1      -4.654   0.180  -1.498  1.00  0.00     0.043 C 
ATOM     24  C   UNL     1      -5.044   0.356   0.994  1.00  0.00     0.122 A 
ATOM     25  C   UNL     1      -5.444  -0.154  -0.258  1.00  0.00    -0.006 A 
ATOM     26  C   UNL     1      -5.792   0.064   2.139  1.00  0.00     0.047 A 
ATOM     27  C   UNL     1      -6.614  -0.923  -0.349  1.00  0.00     0.007 A 
ATOM     28  C   UNL     1      -6.948  -0.716   2.042  1.00  0.00     0.004 A 
ATOM     29  C   UNL     1      -7.360  -1.206   0.800  1.00  0.00     0.001 A 
ENDBRANCH  19  20
ENDBRANCH  17  19
ENDBRANCH  16  17
ENDBRANCH   1  16
TORSDOF 7
