REMARK SMILES CN(C)C(=O)N[C@H]1CC[C@H](CCN2CCN(c3cccc(Cl)c3Cl)CC2)CC1
REMARK SMILES IDX 11 1 10 2 7 3 28 4 8 5 27 6 9 7 6 8 1 9 2 10 3 11 4 12 5 13
REMARK SMILES IDX 12 15 13 16 14 17 26 18 15 19 25 20 16 21 17 22 23 23 18 24
REMARK SMILES IDX 24 25 21 26 19 27 22 28 20 29
REMARK H PARENT 6 14
REMARK Flexibility Score: inf
ROOT
ATOM      1  C   UNL     1      -0.363   1.266  -1.912  1.00  0.00     0.019 C 
ENDROOT
BRANCH   1   2
ATOM      2  C   UNL     1       1.049   1.270  -1.276  1.00  0.00    -0.010 C 
ATOM      3  C   UNL     1       3.803   0.135  -1.057  1.00  0.00     0.083 C 
ATOM      4  C   UNL     1       2.766  -0.056   0.061  1.00  0.00     0.025 C 
ATOM      5  C   UNL     1       3.530   1.451  -1.805  1.00  0.00     0.025 C 
ATOM      6  C   UNL     1       1.336  -0.032  -0.494  1.00  0.00     0.006 C 
ATOM      7  C   UNL     1       2.109   1.469  -2.380  1.00  0.00     0.006 C 
BRANCH   3   8
ATOM      8  N   UNL     1       5.156   0.139  -0.490  1.00  0.00    -0.335 N 
ATOM      9  C   UNL     1       7.739  -2.302   0.962  1.00  0.00     0.148 C 
ATOM     10  N   UNL     1       7.090  -1.037   0.603  1.00  0.00    -0.331 N 
ATOM     11  C   UNL     1       7.735   0.239   0.930  1.00  0.00     0.148 C 
ATOM     12  C   UNL     1       5.804  -1.070  -0.055  1.00  0.00     0.317 C 
ATOM     13  O   UNL     1       5.239  -2.181  -0.255  1.00  0.00    -0.249 OA
ATOM     14  H   UNL     1       5.671   1.046  -0.438  1.00  0.00     0.165 HD
ENDBRANCH   3   8
ENDBRANCH   1   2
BRANCH   1  15
ATOM     15  C   UNL     1      -1.509   1.400  -0.892  1.00  0.00     0.085 C 
BRANCH  15  16
ATOM     16  N   UNL     1      -1.789   0.107  -0.228  1.00  0.00    -0.300 NA
ATOM     17  C   UNL     1      -2.201   0.260   1.184  1.00  0.00     0.106 C 
ATOM     18  C   UNL     1      -2.727  -0.757  -0.983  1.00  0.00     0.106 C 
ATOM     19  C   UNL     1      -3.622   0.816   1.307  1.00  0.00     0.132 C 
ATOM     20  C   UNL     1      -4.190  -0.295  -0.878  1.00  0.00     0.132 C 
ATOM     21  N   UNL     1      -4.530  -0.013   0.516  1.00  0.00    -0.368 N 
BRANCH  21  22
ATOM     22  C   UNL     1      -5.792  -0.436   1.052  1.00  0.00     0.057 A 
ATOM     23  C   UNL     1      -6.828   0.488   1.296  1.00  0.00     0.083 A 
ATOM     24  C   UNL     1      -5.991  -1.795   1.334  1.00  0.00     0.027 A 
ATOM     25  Cl  UNL     1      -6.614   2.190   0.890  1.00  0.00    -0.080 Cl
ATOM     26  C   UNL     1      -8.050   0.038   1.832  1.00  0.00     0.061 A 
ATOM     27  C   UNL     1      -7.204  -2.234   1.866  1.00  0.00     0.004 A 
ATOM     28  Cl  UNL     1      -9.375   1.151   2.150  1.00  0.00    -0.083 Cl
ATOM     29  C   UNL     1      -8.229  -1.320   2.117  1.00  0.00     0.022 A 
ENDBRANCH  21  22
ENDBRANCH  15  16
ENDBRANCH   1  15
TORSDOF 5
