REMARK SMILES COc1ccc(CN(CCN(C)C)c2ccccn2)cc1
REMARK SMILES IDX 8 1 7 2 6 3 3 4 4 5 21 6 5 7 20 8 2 9 1 10 9 11 10 12 11 13
REMARK SMILES IDX 12 14 13 15 14 16 19 17 15 18 18 19 16 20 17 21
REMARK H PARENT
REMARK Flexibility Score: inf
ROOT
ATOM      1  N   UNL     1      -0.502   0.106  -0.619  1.00  0.00    -0.351 N 
ENDROOT
BRANCH   1   2
ATOM      2  C   UNL     1       0.451  -0.729  -1.369  1.00  0.00     0.153 C 
BRANCH   2   3
ATOM      3  C   UNL     1       1.773  -0.792  -0.649  1.00  0.00    -0.028 A 
ATOM      4  C   UNL     1       4.230  -0.877   0.727  1.00  0.00     0.118 A 
ATOM      5  C   UNL     1       3.098  -1.530   1.250  1.00  0.00     0.047 A 
ATOM      6  C   UNL     1       4.120  -0.186  -0.485  1.00  0.00     0.047 A 
ATOM      7  C   UNL     1       1.879  -1.486   0.565  1.00  0.00     0.009 A 
ATOM      8  C   UNL     1       2.902  -0.142  -1.170  1.00  0.00     0.009 A 
BRANCH   4   9
ATOM      9  O   UNL     1       5.473  -0.891   1.376  1.00  0.00    -0.497 OA
ATOM     10  C   UNL     1       5.727  -1.549   2.613  1.00  0.00     0.278 C 
ENDBRANCH   4   9
ENDBRANCH   2   3
ENDBRANCH   1   2
BRANCH   1  11
ATOM     11  C   UNL     1      -1.595  -0.559   0.114  1.00  0.00     0.134 C 
BRANCH  11  12
ATOM     12  C   UNL     1      -2.928  -0.382  -0.625  1.00  0.00     0.105 C 
BRANCH  12  13
ATOM     13  N   UNL     1      -4.054  -0.870   0.201  1.00  0.00    -0.308 NA
ATOM     14  C   UNL     1      -4.212  -2.330   0.073  1.00  0.00     0.105 C 
ATOM     15  C   UNL     1      -5.306  -0.208  -0.200  1.00  0.00     0.105 C 
ENDBRANCH  12  13
ENDBRANCH  11  12
ENDBRANCH   1  11
BRANCH   1  16
ATOM     16  C   UNL     1      -0.337   1.549  -0.622  1.00  0.00     0.128 A 
ATOM     17  N   UNL     1       0.586   2.116  -1.452  1.00  0.00    -0.239 NA
ATOM     18  C   UNL     1      -1.099   2.394   0.213  1.00  0.00     0.047 A 
ATOM     19  C   UNL     1       0.800   3.456  -1.504  1.00  0.00     0.113 A 
ATOM     20  C   UNL     1      -0.893   3.775   0.172  1.00  0.00     0.005 A 
ATOM     21  C   UNL     1       0.062   4.313  -0.689  1.00  0.00     0.020 A 
ENDBRANCH   1  16
TORSDOF 7
