REMARK SMILES C[N@+]1(CC2CC2)CC[C@]23c4c5ccc(O)c4O[C@H]2C(=O)CC[C@@]3(O)[C@H]1C5
REMARK SMILES IDX 1 1 2 2 7 3 8 4 9 5 18 6 17 7 16 8 14 9 13 10 12 11 11 12
REMARK SMILES IDX 26 13 25 14 23 15 22 16 21 17 19 18 20 19 10 20 3 21 4 22
REMARK SMILES IDX 5 23 6 24 24 25 15 27
REMARK H PARENT 24 26 15 28
REMARK Flexibility Score: inf
ROOT
ATOM      1  C   UNL     1       2.246  -1.591  -0.619  1.00  0.00     0.334 C 
ATOM      2  N   UNL     1       1.562  -0.408  -0.010  1.00  0.00    -0.321 N 
ATOM      3  C   UNL     1       0.877  -0.829   1.254  1.00  0.00     0.265 C 
ATOM      4  C   UNL     1      -0.440  -1.610   1.044  1.00  0.00     0.081 C 
ATOM      5  C   UNL     1      -1.396  -0.904   0.056  1.00  0.00     0.083 C 
ATOM      6  C   UNL     1      -2.801  -1.602   0.035  1.00  0.00     0.254 C 
ATOM      7  O   UNL     1      -3.621  -0.796   0.895  1.00  0.00    -0.477 OA
ATOM      8  C   UNL     1      -3.011   0.421   1.127  1.00  0.00     0.166 A 
ATOM      9  C   UNL     1      -3.573   1.565   1.692  1.00  0.00     0.158 A 
ATOM     10  C   UNL     1      -2.830   2.764   1.637  1.00  0.00     0.050 A 
ATOM     11  C   UNL     1      -1.589   2.800   0.963  1.00  0.00     0.008 A 
ATOM     12  C   UNL     1      -1.049   1.620   0.415  1.00  0.00    -0.034 A 
ATOM     13  C   UNL     1       0.069   1.644  -0.604  1.00  0.00     0.104 C 
ATOM     14  C   UNL     1       0.579   0.201  -1.013  1.00  0.00     0.223 C 
ATOM     15  C   UNL     1      -0.685  -0.726  -1.302  1.00  0.00     0.131 C 
ATOM     16  C   UNL     1      -1.688  -0.120  -2.324  1.00  0.00     0.051 C 
ATOM     17  C   UNL     1      -2.854  -1.081  -2.590  1.00  0.00     0.083 C 
ATOM     18  C   UNL     1      -3.454  -1.672  -1.333  1.00  0.00     0.174 C 
ATOM     19  O   UNL     1      -4.522  -2.257  -1.430  1.00  0.00    -0.295 OA
ATOM     20  C   UNL     1      -1.756   0.435   0.607  1.00  0.00     0.015 A 
ENDROOT
BRANCH   2  21
ATOM     21  C   UNL     1       2.630   0.600   0.330  1.00  0.00     0.267 C 
BRANCH  21  22
ATOM     22  C   UNL     1       3.813   0.067   1.178  1.00  0.00     0.044 C 
ATOM     23  C   UNL     1       4.963   1.057   1.311  1.00  0.00     0.010 C 
ATOM     24  C   UNL     1       5.125  -0.178   0.443  1.00  0.00     0.010 C 
ENDBRANCH  21  22
ENDBRANCH   2  21
BRANCH  15  25
ATOM     25  O   UNL     1      -0.301  -1.983  -1.802  1.00  0.00    -0.383 OA
ATOM     26  H   UNL     1       0.193  -1.830  -2.650  1.00  0.00     0.211 HD
ENDBRANCH  15  25
BRANCH   9  27
ATOM     27  O   UNL     1      -4.843   1.521   2.261  1.00  0.00    -0.504 OA
ATOM     28  H   UNL     1      -5.267   2.348   2.665  1.00  0.00     0.293 HD
ENDBRANCH   9  27
TORSDOF 4
