REMARK SMILES CC(CCc1ccccc1)NC(C)C(O)c1ccc(O)cc1
REMARK SMILES IDX 11 1 2 3 1 4 3 5 4 6 5 7 6 8 10 9 7 10 9 11 8 12 12 13 13 14
REMARK SMILES IDX 14 15 15 16 16 18 17 19 22 20 18 21 21 22 19 23 20 24
REMARK H PARENT 11 2 15 17 20 25
REMARK Flexibility Score: inf
ROOT
ATOM      1  N   UNL     1      -0.067   1.541   0.949  1.00  0.00    -0.309 NA
ATOM      2  H   UNL     1      -0.150   2.503   1.355  1.00  0.00     0.123 HD
ENDROOT
BRANCH   1   3
ATOM      3  C   UNL     1      -0.793   0.550   1.779  1.00  0.00     0.051 C 
ATOM      4  C   UNL     1      -0.915   1.017   3.242  1.00  0.00     0.024 C 
BRANCH   3   5
ATOM      5  C   UNL     1      -2.207   0.333   1.205  1.00  0.00     0.023 C 
BRANCH   5   6
ATOM      6  C   UNL     1      -2.181  -0.227  -0.222  1.00  0.00     0.037 C 
BRANCH   6   7
ATOM      7  C   UNL     1      -3.572  -0.577  -0.679  1.00  0.00    -0.048 A 
ATOM      8  C   UNL     1      -4.386   0.397  -1.283  1.00  0.00     0.004 A 
ATOM      9  C   UNL     1      -4.089  -1.864  -0.456  1.00  0.00     0.004 A 
ATOM     10  C   UNL     1      -5.689   0.079  -1.678  1.00  0.00     0.000 A 
ATOM     11  C   UNL     1      -5.393  -2.178  -0.852  1.00  0.00     0.000 A 
ATOM     12  C   UNL     1      -6.191  -1.208  -1.465  1.00  0.00     0.000 A 
ENDBRANCH   6   7
ENDBRANCH   5   6
ENDBRANCH   3   5
ENDBRANCH   1   3
BRANCH   1  13
ATOM     13  C   UNL     1       1.358   1.248   0.665  1.00  0.00     0.084 C 
ATOM     14  C   UNL     1       2.186   1.040   1.946  1.00  0.00     0.027 C 
BRANCH  13  15
ATOM     15  C   UNL     1       1.511   0.083  -0.347  1.00  0.00     0.161 C 
BRANCH  15  16
ATOM     16  O   UNL     1       0.756   0.368  -1.497  1.00  0.00    -0.387 OA
ATOM     17  H   UNL     1       0.662  -0.484  -1.999  1.00  0.00     0.211 HD
ENDBRANCH  15  16
BRANCH  15  18
ATOM     18  C   UNL     1       2.961  -0.126  -0.739  1.00  0.00    -0.018 A 
ATOM     19  C   UNL     1       3.616   0.793  -1.579  1.00  0.00     0.010 A 
ATOM     20  C   UNL     1       3.680  -1.224  -0.236  1.00  0.00     0.010 A 
ATOM     21  C   UNL     1       4.960   0.609  -1.917  1.00  0.00     0.046 A 
ATOM     22  C   UNL     1       5.024  -1.406  -0.576  1.00  0.00     0.046 A 
ATOM     23  C   UNL     1       5.667  -0.490  -1.418  1.00  0.00     0.115 A 
BRANCH  23  24
ATOM     24  O   UNL     1       7.006  -0.660  -1.763  1.00  0.00    -0.508 OA
ATOM     25  H   UNL     1       7.545  -1.445  -1.418  1.00  0.00     0.293 HD
ENDBRANCH  23  24
ENDBRANCH  15  18
ENDBRANCH  13  15
ENDBRANCH   1  13
TORSDOF 9
