REMARK SMILES CC1(C)O[C@@H]2C[C@H]3[C@@H]4CCC5=CC(=O)CC[C@]5(C)[C@@]4(F)[C@@H](O)C[C@]3(C)[C@]2(C(=O)CCl)O1
REMARK SMILES IDX 7 1 6 2 5 3 4 4 2 5 1 6 3 7 31 8 26 9 24 10 25 11 23 12
REMARK SMILES IDX 21 13 19 14 20 15 8 16 9 17 10 18 11 19 12 20 13 21 14 22
REMARK SMILES IDX 15 23 16 24 17 25 18 26 27 27 28 28 29 29 30 30 22 31
REMARK H PARENT 22 32
REMARK Flexibility Score: inf
ROOT
ATOM      1  C   UNL     1      -0.625   0.695   0.592  1.00  0.00     0.007 C 
ATOM      2  C   UNL     1      -1.458   1.647   1.433  1.00  0.00     0.040 C 
ATOM      3  C   UNL     1      -2.896   1.111   1.274  1.00  0.00     0.162 C 
ATOM      4  O   UNL     1      -3.614   1.914   0.385  1.00  0.00    -0.344 OA
ATOM      5  C   UNL     1      -3.825   1.141  -0.776  1.00  0.00     0.164 C 
ATOM      6  C   UNL     1      -3.318   1.926  -1.990  1.00  0.00     0.075 C 
ATOM      7  C   UNL     1      -5.327   0.870  -0.935  1.00  0.00     0.075 C 
ATOM      8  O   UNL     1      -3.130  -0.087  -0.706  1.00  0.00    -0.333 OA
ATOM      9  C   UNL     1      -2.803  -0.289   0.641  1.00  0.00     0.162 C 
ATOM     10  C   UNL     1      -1.290  -0.673   0.801  1.00  0.00     0.012 C 
ATOM     11  C   UNL     1      -1.070  -1.246   2.245  1.00  0.00     0.015 C 
ATOM     12  C   UNL     1      -0.721  -1.635  -0.284  1.00  0.00     0.045 C 
ATOM     13  C   UNL     1       0.834  -1.691  -0.328  1.00  0.00     0.153 C 
ATOM     14  C   UNL     1       1.522  -0.270  -0.348  1.00  0.00     0.148 C 
ATOM     15  F   UNL     1       1.169   0.276  -1.580  1.00  0.00    -0.240 F 
ATOM     16  C   UNL     1       0.919   0.693   0.737  1.00  0.00     0.034 C 
ATOM     17  C   UNL     1       1.469   2.123   0.538  1.00  0.00     0.012 C 
ATOM     18  C   UNL     1       2.994   2.160   0.589  1.00  0.00     0.032 C 
ATOM     19  C   UNL     1       3.605   1.163  -0.368  1.00  0.00    -0.057 C 
ATOM     20  C   UNL     1       4.706   1.520  -1.055  1.00  0.00     0.047 C 
ATOM     21  C   UNL     1       5.476   0.553  -1.850  1.00  0.00     0.155 C 
ATOM     22  O   UNL     1       6.470   0.946  -2.517  1.00  0.00    -0.295 OA
ATOM     23  C   UNL     1       5.134  -0.901  -1.813  1.00  0.00     0.081 C 
ATOM     24  C   UNL     1       3.634  -1.084  -1.568  1.00  0.00     0.023 C 
ATOM     25  C   UNL     1       3.112  -0.291  -0.322  1.00  0.00     0.026 C 
ATOM     26  C   UNL     1       3.715  -0.927   0.961  1.00  0.00     0.020 C 
ENDROOT
BRANCH   9  27
ATOM     27  C   UNL     1      -3.796  -1.304   1.237  1.00  0.00     0.182 C 
ATOM     28  O   UNL     1      -4.531  -0.972   2.157  1.00  0.00    -0.295 OA
BRANCH  27  29
ATOM     29  C   UNL     1      -3.913  -2.719   0.727  1.00  0.00     0.188 C 
ATOM     30  Cl  UNL     1      -4.364  -2.771  -0.996  1.00  0.00    -0.118 Cl
ENDBRANCH  27  29
ENDBRANCH   9  27
BRANCH  13  31
ATOM     31  O   UNL     1       1.322  -2.564   0.657  1.00  0.00    -0.390 OA
ATOM     32  H   UNL     1       1.377  -2.073   1.510  1.00  0.00     0.211 HD
ENDBRANCH  13  31
TORSDOF 3
