REMARK SMILES C[N+](C)(C)CC(=O)[O-]
REMARK SMILES IDX 5 1 2 2 1 3 3 4 4 5 6 6 8 7 7 8
REMARK H PARENT
REMARK Flexibility Score: inf
ROOT
ATOM      1  C   UNL     1       0.797   0.739   0.640  1.00  0.00     0.317 C 
ENDROOT
BRANCH   1   2
ATOM      2  N   UNL     1      -0.313  -0.068   0.051  1.00  0.00    -0.326 N 
ATOM      3  C   UNL     1       0.042  -1.507   0.007  1.00  0.00     0.334 C 
ATOM      4  C   UNL     1      -0.644   0.404  -1.316  1.00  0.00     0.334 C 
ATOM      5  C   UNL     1      -1.512   0.095   0.907  1.00  0.00     0.334 C 
ENDBRANCH   1   2
BRANCH   1   6
ATOM      6  C   UNL     1       2.089   0.657  -0.132  1.00  0.00     0.096 C 
ATOM      7  O   UNL     1       3.020  -0.329   0.169  1.00  0.00    -0.544 OA
ATOM      8  O   UNL     1       2.331   1.480  -1.054  1.00  0.00    -0.544 OA
ENDBRANCH   1   6
TORSDOF 2
