REMARK SMILES NC(=O)Cc1cccc(C(=O)c2ccccc2)c1N
REMARK SMILES IDX 5 1 6 2 7 3 8 4 9 5 18 6 4 7 2 8 1 9 3 12 19 13 10 16 11 17
REMARK SMILES IDX 12 18 13 19 17 20 14 21 16 22 15 23
REMARK H PARENT 1 10 1 11 19 14 19 15
REMARK Flexibility Score: inf
ROOT
ATOM      1  C   UNL     1      -2.047   0.100   1.000  1.00  0.00    -0.015 A 
ATOM      2  C   UNL     1      -1.600   0.628   2.223  1.00  0.00     0.006 A 
ATOM      3  C   UNL     1      -0.292   1.082   2.367  1.00  0.00     0.001 A 
ATOM      4  C   UNL     1       0.588   1.033   1.290  1.00  0.00     0.014 A 
ATOM      5  C   UNL     1       0.171   0.527   0.049  1.00  0.00     0.046 A 
ATOM      6  C   UNL     1      -1.157   0.054  -0.107  1.00  0.00     0.046 A 
ENDROOT
BRANCH   1   7
ATOM      7  C   UNL     1      -3.475  -0.387   0.909  1.00  0.00     0.137 C 
BRANCH   7   8
ATOM      8  C   UNL     1      -4.353   0.644   0.261  1.00  0.00     0.221 C 
ATOM      9  N   UNL     1      -5.153   0.310  -0.873  1.00  0.00    -0.369 N 
ATOM     10  H   UNL     1      -5.146  -0.657  -1.269  1.00  0.00     0.159 HD
ATOM     11  H   UNL     1      -5.763   1.031  -1.317  1.00  0.00     0.159 HD
ATOM     12  O   UNL     1      -4.409   1.809   0.740  1.00  0.00    -0.275 OA
ENDBRANCH   7   8
ENDBRANCH   1   7
BRANCH   6  13
ATOM     13  N   UNL     1      -1.583  -0.497  -1.366  1.00  0.00    -0.398 N 
ATOM     14  H   UNL     1      -2.587  -0.660  -1.590  1.00  0.00     0.156 HD
ATOM     15  H   UNL     1      -0.896  -0.776  -2.100  1.00  0.00     0.156 HD
ENDBRANCH   6  13
BRANCH   5  16
ATOM     16  C   UNL     1       1.124   0.566  -1.084  1.00  0.00     0.195 C 
ATOM     17  O   UNL     1       0.774   1.145  -2.149  1.00  0.00    -0.289 OA
BRANCH  16  18
ATOM     18  C   UNL     1       2.483  -0.026  -0.986  1.00  0.00     0.023 A 
ATOM     19  C   UNL     1       2.782  -1.004  -0.016  1.00  0.00     0.012 A 
ATOM     20  C   UNL     1       3.491   0.367  -1.886  1.00  0.00     0.012 A 
ATOM     21  C   UNL     1       4.063  -1.559   0.059  1.00  0.00     0.001 A 
ATOM     22  C   UNL     1       4.771  -0.191  -1.806  1.00  0.00     0.001 A 
ATOM     23  C   UNL     1       5.057  -1.152  -0.834  1.00  0.00     0.000 A 
ENDBRANCH  16  18
ENDBRANCH   5  16
TORSDOF 5
