REMARK SMILES CN1CCN2c3c(cccc31)[C@@H]1CN(CCCC(=O)c3ccc(F)cc3)CC[C@@H]12
REMARK SMILES IDX 16 1 15 2 14 3 29 4 28 5 12 6 5 7 27 8 13 9 7 10 6 11 4 12
REMARK SMILES IDX 8 13 11 14 3 15 9 16 10 17 2 18 1 19 17 20 18 21 19 22 20 23
REMARK SMILES IDX 21 24 26 25 22 26 25 27 23 28 24 29
REMARK H PARENT
REMARK Flexibility Score: inf
ROOT
ATOM      1  C   UNL     1       3.145   1.821  -0.131  1.00  0.00     0.024 C 
ENDROOT
BRANCH   1   2
ATOM      2  C   UNL     1       1.927   1.337   0.673  1.00  0.00     0.085 C 
BRANCH   2   3
ATOM      3  N   UNL     1       0.844   0.904  -0.235  1.00  0.00    -0.303 NA
ATOM      4  C   UNL     1      -1.905   0.623  -1.233  1.00  0.00     0.092 C 
ATOM      5  C   UNL     1      -1.383   2.003  -0.814  1.00  0.00     0.041 C 
ATOM      6  C   UNL     1      -1.127  -0.547  -0.537  1.00  0.00     0.058 C 
ATOM      7  N   UNL     1      -3.301   0.465  -0.818  1.00  0.00    -0.364 N 
ATOM      8  C   UNL     1       0.154   2.060  -0.879  1.00  0.00     0.086 C 
ATOM      9  C   UNL     1      -0.066  -0.037   0.448  1.00  0.00     0.095 C 
ATOM     10  C   UNL     1      -2.207  -1.311   0.162  1.00  0.00    -0.016 A 
ATOM     11  C   UNL     1      -3.403  -0.698  -0.044  1.00  0.00     0.064 A 
ATOM     12  C   UNL     1      -4.481   0.993  -1.498  1.00  0.00     0.138 C 
ATOM     13  C   UNL     1      -2.145  -2.539   0.825  1.00  0.00     0.006 A 
ATOM     14  C   UNL     1      -4.614  -1.245   0.344  1.00  0.00     0.060 A 
ATOM     15  C   UNL     1      -5.731   0.815  -0.605  1.00  0.00     0.137 C 
ATOM     16  C   UNL     1      -3.347  -3.117   1.276  1.00  0.00     0.003 A 
ATOM     17  C   UNL     1      -4.583  -2.480   1.030  1.00  0.00     0.028 A 
ATOM     18  N   UNL     1      -5.825  -0.547  -0.031  1.00  0.00    -0.371 N 
ATOM     19  C   UNL     1      -7.142  -1.111   0.276  1.00  0.00     0.143 C 
ENDBRANCH   2   3
ENDBRANCH   1   2
BRANCH   1  20
ATOM     20  C   UNL     1       4.308   2.255   0.775  1.00  0.00     0.082 C 
BRANCH  20  21
ATOM     21  C   UNL     1       4.888   1.100   1.553  1.00  0.00     0.162 C 
ATOM     22  O   UNL     1       4.689   1.067   2.799  1.00  0.00    -0.294 OA
BRANCH  21  23
ATOM     23  C   UNL     1       5.637  -0.011   0.905  1.00  0.00     0.018 A 
ATOM     24  C   UNL     1       5.865  -1.207   1.613  1.00  0.00     0.015 A 
ATOM     25  C   UNL     1       6.124   0.093  -0.415  1.00  0.00     0.015 A 
ATOM     26  C   UNL     1       6.542  -2.273   1.014  1.00  0.00     0.040 A 
ATOM     27  C   UNL     1       6.800  -0.977  -1.009  1.00  0.00     0.040 A 
ATOM     28  C   UNL     1       7.004  -2.161  -0.298  1.00  0.00     0.123 A 
ATOM     29  F   UNL     1       7.647  -3.201  -0.880  1.00  0.00    -0.207 F 
ENDBRANCH  21  23
ENDBRANCH  20  21
ENDBRANCH   1  20
TORSDOF 5
