REMARK SMILES Cn1c(=O)cc(N2CCC[C@@H](N)C2)n(Cc2ccccc2C#N)c1=O
REMARK SMILES IDX 1 1 2 2 3 3 4 4 5 5 6 6 14 7 24 8 25 9 15 10 16 11 21 12
REMARK SMILES IDX 17 13 20 14 18 15 19 16 22 17 23 18 7 19 8 20 13 21 9 22
REMARK SMILES IDX 11 23 10 24 12 25
REMARK H PARENT 12 26 12 27
REMARK Flexibility Score: inf
ROOT
ATOM      1  C   UNL     1      -1.346   4.891  -0.299  1.00  0.00     0.158 C 
ATOM      2  N   UNL     1      -0.745   3.546  -0.304  1.00  0.00    -0.263 N 
ATOM      3  C   UNL     1       0.522   3.360   0.181  1.00  0.00     0.258 A 
ATOM      4  O   UNL     1       1.185   4.327   0.648  1.00  0.00    -0.269 OA
ATOM      5  C   UNL     1       1.098   2.098   0.164  1.00  0.00     0.117 A 
ATOM      6  C   UNL     1       0.383   1.030  -0.368  1.00  0.00     0.118 A 
ATOM      7  N   UNL     1      -0.868   1.233  -0.896  1.00  0.00    -0.275 N 
ATOM      8  C   UNL     1      -1.425   2.492  -0.863  1.00  0.00     0.332 A 
ATOM      9  O   UNL     1      -2.576   2.682  -1.350  1.00  0.00    -0.247 OA
ENDROOT
BRANCH   7  10
ATOM     10  C   UNL     1      -1.610   0.098  -1.487  1.00  0.00     0.166 C 
BRANCH  10  11
ATOM     11  C   UNL     1      -2.156  -0.832  -0.418  1.00  0.00    -0.010 A 
ATOM     12  C   UNL     1      -2.120  -2.241  -0.564  1.00  0.00     0.057 A 
ATOM     13  C   UNL     1      -2.776  -0.285   0.722  1.00  0.00     0.007 A 
ATOM     14  C   UNL     1      -2.650  -3.062   0.442  1.00  0.00     0.020 A 
ATOM     15  C   UNL     1      -3.300  -1.115   1.716  1.00  0.00     0.000 A 
ATOM     16  C   UNL     1      -3.232  -2.500   1.579  1.00  0.00     0.001 A 
BRANCH  12  17
ATOM     17  C   UNL     1      -1.541  -2.873  -1.726  1.00  0.00     0.099 C 
ATOM     18  N   UNL     1      -1.077  -3.380  -2.656  1.00  0.00    -0.192 NA
ENDBRANCH  12  17
ENDBRANCH  10  11
ENDBRANCH   7  10
BRANCH   6  19
ATOM     19  N   UNL     1       0.989  -0.274  -0.369  1.00  0.00    -0.356 N 
ATOM     20  C   UNL     1       1.792  -0.715  -1.511  1.00  0.00     0.118 C 
ATOM     21  C   UNL     1       0.957  -1.111   0.834  1.00  0.00     0.136 C 
ATOM     22  C   UNL     1       3.227  -0.987  -1.055  1.00  0.00     0.023 C 
ATOM     23  C   UNL     1       2.389  -1.410   1.317  1.00  0.00     0.070 C 
ATOM     24  C   UNL     1       3.244  -1.942   0.148  1.00  0.00     0.022 C 
BRANCH  23  25
ATOM     25  N   UNL     1       2.997  -0.207   1.890  1.00  0.00    -0.326 NA
ATOM     26  H   UNL     1       2.428   0.089   2.716  1.00  0.00     0.119 HD
ATOM     27  H   UNL     1       3.939  -0.462   2.268  1.00  0.00     0.119 HD
ENDBRANCH  23  25
ENDBRANCH   6  19
TORSDOF 5
