REMARK SMILES Cc1cc(C(C)(C)C)cc(C)c1CC1=NCCN1
REMARK SMILES IDX 1 1 2 2 3 3 4 4 9 5 10 6 11 7 12 8 13 9 14 10 15 11 18 12
REMARK SMILES IDX 16 13 17 14 5 16 6 17 7 18 8 19
REMARK H PARENT 18 15
REMARK Flexibility Score: inf
ROOT
ATOM      1  C   UNL     1      -1.163   0.209   2.359  1.00  0.00     0.044 C 
ATOM      2  C   UNL     1      -0.286  -0.150   1.184  1.00  0.00    -0.047 A 
ATOM      3  C   UNL     1       1.022   0.354   1.148  1.00  0.00     0.008 A 
ATOM      4  C   UNL     1       1.903   0.060   0.091  1.00  0.00    -0.042 A 
ATOM      5  C   UNL     1       1.429  -0.766  -0.948  1.00  0.00     0.008 A 
ATOM      6  C   UNL     1       0.124  -1.283  -0.942  1.00  0.00    -0.047 A 
ATOM      7  C   UNL     1      -0.300  -2.171  -2.088  1.00  0.00     0.044 C 
ATOM      8  C   UNL     1      -0.745  -0.997   0.143  1.00  0.00    -0.035 A 
ENDROOT
BRANCH   8   9
ATOM      9  C   UNL     1      -2.164  -1.545   0.170  1.00  0.00     0.110 C 
BRANCH   9  10
ATOM     10  C   UNL     1      -3.141  -0.536  -0.355  1.00  0.00     0.101 C 
ATOM     11  N   UNL     1      -3.033   0.006  -1.519  1.00  0.00    -0.271 NA
ATOM     12  N   UNL     1      -4.287  -0.122   0.362  1.00  0.00    -0.372 N 
ATOM     13  C   UNL     1      -4.146   0.921  -1.740  1.00  0.00     0.165 C 
ATOM     14  C   UNL     1      -4.998   0.832  -0.464  1.00  0.00     0.137 C 
ATOM     15  H   UNL     1      -4.569  -0.442   1.315  1.00  0.00     0.161 HD
ENDBRANCH   9  10
ENDBRANCH   8   9
BRANCH   4  16
ATOM     16  C   UNL     1       3.333   0.645   0.108  1.00  0.00    -0.013 C 
ATOM     17  C   UNL     1       4.179   0.230  -1.120  1.00  0.00     0.016 C 
ATOM     18  C   UNL     1       3.259   2.188   0.123  1.00  0.00     0.016 C 
ATOM     19  C   UNL     1       4.075   0.156   1.372  1.00  0.00     0.016 C 
ENDBRANCH   4  16
TORSDOF 3
