REMARK SMILES CCOc1ccc(/C=C2\NCCc3cc(OCC)c(OCC)cc32)cc1OCC
REMARK SMILES IDX 8 1 9 2 10 3 11 4 12 5 13 6 14 7 15 8 19 9 23 10 24 11 7 13
REMARK SMILES IDX 4 14 26 15 5 16 25 17 6 18 3 19 2 20 1 21 27 22 28 23 29 24
REMARK SMILES IDX 20 25 21 26 22 27 16 28 17 29 18 30
REMARK H PARENT 10 12
REMARK Flexibility Score: inf
ROOT
ATOM      1  C   UNL     1      -0.549  -0.260  -0.715  1.00  0.00     0.034 C 
ATOM      2  C   UNL     1       0.350   0.702  -0.420  1.00  0.00     0.042 C 
ATOM      3  N   UNL     1      -0.078   2.058  -0.186  1.00  0.00    -0.384 N 
ATOM      4  C   UNL     1       0.884   3.081   0.210  1.00  0.00     0.117 C 
ATOM      5  C   UNL     1       2.162   2.935  -0.616  1.00  0.00     0.057 C 
ATOM      6  C   UNL     1       2.704   1.529  -0.509  1.00  0.00    -0.033 A 
ATOM      7  C   UNL     1       4.087   1.313  -0.527  1.00  0.00     0.055 A 
ATOM      8  C   UNL     1       4.619   0.017  -0.399  1.00  0.00     0.161 A 
ATOM      9  C   UNL     1       3.733  -1.076  -0.247  1.00  0.00     0.161 A 
ATOM     10  C   UNL     1       2.352  -0.859  -0.297  1.00  0.00     0.061 A 
ATOM     11  C   UNL     1       1.820   0.434  -0.442  1.00  0.00     0.005 A 
ATOM     12  H   UNL     1      -1.042   2.368  -0.443  1.00  0.00     0.160 HD
ENDROOT
BRANCH   1  13
ATOM     13  C   UNL     1      -2.009  -0.112  -0.529  1.00  0.00    -0.020 A 
ATOM     14  C   UNL     1      -4.802   0.028  -0.148  1.00  0.00     0.161 A 
ATOM     15  C   UNL     1      -4.271  -0.565  -1.319  1.00  0.00     0.161 A 
ATOM     16  C   UNL     1      -3.915   0.496   0.840  1.00  0.00     0.051 A 
ATOM     17  C   UNL     1      -2.883  -0.615  -1.498  1.00  0.00     0.058 A 
ATOM     18  C   UNL     1      -2.535   0.418   0.653  1.00  0.00     0.012 A 
BRANCH  14  19
ATOM     19  O   UNL     1      -6.193   0.145   0.001  1.00  0.00    -0.490 OA
BRANCH  19  20
ATOM     20  C   UNL     1      -6.866   0.859   1.042  1.00  0.00     0.226 C 
ATOM     21  C   UNL     1      -6.726   2.367   0.848  1.00  0.00     0.049 C 
ENDBRANCH  19  20
ENDBRANCH  14  19
BRANCH  15  22
ATOM     22  O   UNL     1      -5.068  -1.111  -2.342  1.00  0.00    -0.490 OA
BRANCH  22  23
ATOM     23  C   UNL     1      -6.340  -1.744  -2.175  1.00  0.00     0.226 C 
ATOM     24  C   UNL     1      -6.237  -2.950  -1.242  1.00  0.00     0.049 C 
ENDBRANCH  22  23
ENDBRANCH  15  22
ENDBRANCH   1  13
BRANCH   9  25
ATOM     25  O   UNL     1       4.156  -2.398  -0.031  1.00  0.00    -0.490 OA
BRANCH  25  26
ATOM     26  C   UNL     1       5.459  -2.806   0.380  1.00  0.00     0.226 C 
ATOM     27  C   UNL     1       5.408  -4.252   0.847  1.00  0.00     0.049 C 
ENDBRANCH  25  26
ENDBRANCH   9  25
BRANCH   8  28
ATOM     28  O   UNL     1       6.005  -0.214  -0.430  1.00  0.00    -0.490 OA
BRANCH  28  29
ATOM     29  C   UNL     1       7.027   0.782  -0.402  1.00  0.00     0.226 C 
ATOM     30  C   UNL     1       7.149   1.397   0.987  1.00  0.00     0.049 C 
ENDBRANCH  28  29
ENDBRANCH   8  28
TORSDOF 9
