REMARK SMILES C[C@H]1CN(C[C@H](Cc2ccccc2)C(=O)NCC(=O)O)CC[C@@]1(C)c1cccc(O)c1
REMARK SMILES IDX 6 1 5 2 4 3 1 4 2 5 3 6 23 7 22 8 24 9 21 10 25 11 31 12
REMARK SMILES IDX 26 13 29 14 27 15 28 16 30 17 7 19 8 20 9 21 13 22 10 23
REMARK SMILES IDX 12 24 11 25 14 26 15 27 16 28 17 30 18 31 19 32 20 33
REMARK H PARENT 30 18 16 29 20 34
REMARK Flexibility Score: inf
ROOT
ATOM      1  C   UNL     1      -2.593  -0.036  -0.903  1.00  0.00     0.097 C 
ENDROOT
BRANCH   1   2
ATOM      2  C   UNL     1      -1.102   0.141  -1.262  1.00  0.00     0.098 C 
BRANCH   2   3
ATOM      3  N   UNL     1      -0.230  -0.137  -0.094  1.00  0.00    -0.302 NA
ATOM      4  C   UNL     1       2.369  -2.598  -1.471  1.00  0.00     0.010 C 
ATOM      5  C   UNL     1       1.752  -1.216  -1.198  1.00  0.00     0.010 C 
ATOM      6  C   UNL     1       0.566  -1.373  -0.218  1.00  0.00     0.088 C 
ATOM      7  C   UNL     1       2.730  -0.066  -0.739  1.00  0.00    -0.002 C 
ATOM      8  C   UNL     1       1.835   1.209  -0.585  1.00  0.00     0.027 C 
ATOM      9  C   UNL     1       3.737   0.257  -1.874  1.00  0.00     0.017 C 
ATOM     10  C   UNL     1       0.602   1.005   0.323  1.00  0.00     0.085 C 
BRANCH   7  11
ATOM     11  C   UNL     1       3.552  -0.404   0.543  1.00  0.00    -0.038 A 
ATOM     12  C   UNL     1       3.530   0.405   1.709  1.00  0.00     0.050 A 
ATOM     13  C   UNL     1       4.471  -1.482   0.539  1.00  0.00     0.004 A 
ATOM     14  C   UNL     1       4.283   0.077   2.842  1.00  0.00     0.115 A 
ATOM     15  C   UNL     1       5.220  -1.810   1.671  1.00  0.00     0.004 A 
ATOM     16  C   UNL     1       5.112  -1.045   2.828  1.00  0.00     0.046 A 
BRANCH  14  17
ATOM     17  O   UNL     1       4.205   0.884   3.975  1.00  0.00    -0.508 OA
ATOM     18  H   UNL     1       4.738   0.676   4.812  1.00  0.00     0.293 HD
ENDBRANCH  14  17
ENDBRANCH   7  11
ENDBRANCH   2   3
ENDBRANCH   1   2
BRANCH   1  19
ATOM     19  C   UNL     1      -3.121   1.050   0.067  1.00  0.00     0.050 C 
BRANCH  19  20
ATOM     20  C   UNL     1      -3.249   2.404  -0.592  1.00  0.00    -0.047 A 
ATOM     21  C   UNL     1      -2.470   3.490  -0.155  1.00  0.00     0.004 A 
ATOM     22  C   UNL     1      -4.179   2.604  -1.628  1.00  0.00     0.004 A 
ATOM     23  C   UNL     1      -2.593   4.740  -0.768  1.00  0.00     0.000 A 
ATOM     24  C   UNL     1      -4.299   3.856  -2.239  1.00  0.00     0.000 A 
ATOM     25  C   UNL     1      -3.503   4.922  -1.812  1.00  0.00     0.000 A 
ENDBRANCH  19  20
ENDBRANCH   1  19
BRANCH   1  26
ATOM     26  C   UNL     1      -2.867  -1.427  -0.378  1.00  0.00     0.225 C 
ATOM     27  O   UNL     1      -3.342  -2.293  -1.162  1.00  0.00    -0.275 OA
ATOM     28  N   UNL     1      -2.557  -1.786   0.979  1.00  0.00    -0.345 N 
ATOM     29  H   UNL     1      -2.116  -1.084   1.614  1.00  0.00     0.164 HD
BRANCH  28  30
ATOM     30  C   UNL     1      -2.784  -3.130   1.502  1.00  0.00     0.238 C 
BRANCH  30  31
ATOM     31  C   UNL     1      -4.248  -3.366   1.696  1.00  0.00     0.322 C 
ATOM     32  O   UNL     1      -4.845  -4.240   1.012  1.00  0.00    -0.250 OA
BRANCH  31  33
ATOM     33  O   UNL     1      -4.951  -2.612   2.630  1.00  0.00    -0.480 OA
ATOM     34  H   UNL     1      -5.944  -2.755   2.772  1.00  0.00     0.296 HD
ENDBRANCH  31  33
ENDBRANCH  30  31
ENDBRANCH  28  30
ENDBRANCH   1  26
TORSDOF 10
