REMARK SMILES CNC(C)CCC=C(C)C
REMARK SMILES IDX 5 1 3 2 4 3 2 4 1 5 6 7 7 8 8 9 9 10 10 11
REMARK H PARENT 2 6
REMARK Flexibility Score: inf
ROOT
ATOM      1  C   UNL     1      -0.535   0.091  -0.930  1.00  0.00     0.023 C 
ENDROOT
BRANCH   1   2
ATOM      2  C   UNL     1      -1.957   0.236  -0.338  1.00  0.00     0.050 C 
ATOM      3  C   UNL     1      -2.770  -1.055  -0.535  1.00  0.00     0.024 C 
BRANCH   2   4
ATOM      4  N   UNL     1      -1.887   0.604   1.092  1.00  0.00    -0.317 NA
ATOM      5  C   UNL     1      -3.168   1.116   1.590  1.00  0.00     0.101 C 
ATOM      6  H   UNL     1      -1.197   1.384   1.200  1.00  0.00     0.122 HD
ENDBRANCH   2   4
ENDBRANCH   1   2
BRANCH   1   7
ATOM      7  C   UNL     1       0.316  -0.982  -0.230  1.00  0.00     0.029 C 
BRANCH   7   8
ATOM      8  C   UNL     1       1.733  -0.959  -0.747  1.00  0.00    -0.028 C 
ATOM      9  C   UNL     1       2.715  -0.179  -0.243  1.00  0.00    -0.080 C 
ATOM     10  C   UNL     1       4.077  -0.234  -0.887  1.00  0.00     0.039 C 
ATOM     11  C   UNL     1       2.490   0.723   0.948  1.00  0.00     0.039 C 
ENDBRANCH   7   8
ENDBRANCH   1   7
TORSDOF 4
