REMARK SMILES C[C@H](NCc1ccc(OCc2cccc(F)c2)cc1)C(N)=O
REMARK SMILES IDX 5 1 6 2 7 3 8 4 18 5 19 6 4 7 3 8 2 10 1 11 20 12 21 13
REMARK SMILES IDX 22 14 9 17 10 18 11 19 17 20 12 21 15 22 13 23 16 24 14 25
REMARK H PARENT 3 9 21 15 21 16
REMARK Flexibility Score: inf
ROOT
ATOM      1  C   UNL     1      -0.966  -0.239   0.091  1.00  0.00    -0.034 A 
ATOM      2  C   UNL     1      -0.051   0.816  -0.042  1.00  0.00     0.009 A 
ATOM      3  C   UNL     1       1.131   0.639  -0.768  1.00  0.00     0.047 A 
ATOM      4  C   UNL     1       1.411  -0.598  -1.379  1.00  0.00     0.119 A 
ATOM      5  C   UNL     1       0.485  -1.641  -1.261  1.00  0.00     0.047 A 
ATOM      6  C   UNL     1      -0.697  -1.465  -0.536  1.00  0.00     0.009 A 
ENDROOT
BRANCH   1   7
ATOM      7  C   UNL     1      -2.255  -0.040   0.838  1.00  0.00     0.117 C 
BRANCH   7   8
ATOM      8  N   UNL     1      -3.319   0.334  -0.104  1.00  0.00    -0.302 NA
ATOM      9  H   UNL     1      -3.087   1.293  -0.459  1.00  0.00     0.123 HD
BRANCH   8  10
ATOM     10  C   UNL     1      -4.633   0.385   0.563  1.00  0.00     0.140 C 
ATOM     11  C   UNL     1      -5.647   1.123  -0.318  1.00  0.00     0.035 C 
BRANCH  10  12
ATOM     12  C   UNL     1      -5.141  -1.008   0.833  1.00  0.00     0.234 C 
ATOM     13  N   UNL     1      -5.758  -1.323   2.081  1.00  0.00    -0.368 N 
ATOM     14  O   UNL     1      -5.052  -1.895  -0.058  1.00  0.00    -0.274 OA
ATOM     15  H   UNL     1      -6.117  -2.287   2.262  1.00  0.00     0.159 HD
ATOM     16  H   UNL     1      -5.862  -0.598   2.825  1.00  0.00     0.159 HD
ENDBRANCH  10  12
ENDBRANCH   8  10
ENDBRANCH   7   8
ENDBRANCH   1   7
BRANCH   4  17
ATOM     17  O   UNL     1       2.585  -0.833  -2.114  1.00  0.00    -0.489 OA
BRANCH  17  18
ATOM     18  C   UNL     1       3.672   0.083  -2.247  1.00  0.00     0.265 C 
BRANCH  18  19
ATOM     19  C   UNL     1       4.414   0.227  -0.944  1.00  0.00    -0.008 A 
ATOM     20  C   UNL     1       4.681   1.499  -0.410  1.00  0.00     0.046 A 
ATOM     21  C   UNL     1       4.873  -0.915  -0.266  1.00  0.00     0.007 A 
ATOM     22  C   UNL     1       5.379   1.624   0.796  1.00  0.00     0.123 A 
ATOM     23  C   UNL     1       5.571  -0.786   0.939  1.00  0.00     0.003 A 
ATOM     24  F   UNL     1       5.627   2.853   1.311  1.00  0.00    -0.207 F 
ATOM     25  C   UNL     1       5.822   0.482   1.471  1.00  0.00     0.039 A 
ENDBRANCH  18  19
ENDBRANCH  17  18
ENDBRANCH   4  17
TORSDOF 7
