REMARK SMILES O=C(/C=C/c1c(C(=O)O)[nH]c2cc(Cl)cc(Cl)c12)Nc1ccccc1
REMARK SMILES IDX 6 1 5 2 18 3 16 4 17 5 15 6 13 7 14 8 12 9 11 10 10 11 7 13
REMARK SMILES IDX 8 14 9 15 4 17 3 18 2 19 1 20 19 21 20 23 21 24 25 25 22 26
REMARK SMILES IDX 24 27 23 28
REMARK H PARENT 10 12 9 16 19 22
REMARK Flexibility Score: inf
ROOT
ATOM      1  C   UNL     1      -2.967  -0.319  -1.798  1.00  0.00     0.133 A 
ATOM      2  C   UNL     1      -2.234  -0.413  -0.610  1.00  0.00     0.016 A 
ATOM      3  C   UNL     1      -3.070   0.077   0.390  1.00  0.00     0.026 A 
ATOM      4  C   UNL     1      -2.937   0.175   1.786  1.00  0.00     0.052 A 
ATOM      5  Cl  UNL     1      -1.540  -0.426   2.666  1.00  0.00    -0.084 Cl
ATOM      6  C   UNL     1      -4.012   0.722   2.513  1.00  0.00     0.041 A 
ATOM      7  C   UNL     1      -5.189   1.137   1.857  1.00  0.00     0.044 A 
ATOM      8  Cl  UNL     1      -6.517   1.808   2.786  1.00  0.00    -0.084 Cl
ATOM      9  C   UNL     1      -5.312   0.996   0.465  1.00  0.00     0.047 A 
ATOM     10  C   UNL     1      -4.236   0.457  -0.237  1.00  0.00     0.050 A 
ATOM     11  N   UNL     1      -4.184   0.219  -1.558  1.00  0.00    -0.348 N 
ATOM     12  H   UNL     1      -4.936   0.414  -2.257  1.00  0.00     0.167 HD
ENDROOT
BRANCH   1  13
ATOM     13  C   UNL     1      -2.515  -0.695  -3.150  1.00  0.00     0.352 C 
ATOM     14  O   UNL     1      -1.354  -1.147  -3.340  1.00  0.00    -0.245 OA
BRANCH  13  15
ATOM     15  O   UNL     1      -3.379  -0.546  -4.231  1.00  0.00    -0.477 OA
ATOM     16  H   UNL     1      -3.087  -0.797  -5.168  1.00  0.00     0.297 HD
ENDBRANCH  13  15
ENDBRANCH   1  13
BRANCH   2  17
ATOM     17  C   UNL     1      -0.848  -0.897  -0.484  1.00  0.00     0.017 C 
ATOM     18  C   UNL     1       0.119  -0.112  -0.001  1.00  0.00     0.072 C 
BRANCH  18  19
ATOM     19  C   UNL     1       1.524  -0.550   0.087  1.00  0.00     0.248 C 
ATOM     20  O   UNL     1       1.852  -1.709  -0.287  1.00  0.00    -0.270 OA
ATOM     21  N   UNL     1       2.506   0.339   0.643  1.00  0.00    -0.323 N 
ATOM     22  H   UNL     1       2.165   1.156   1.198  1.00  0.00     0.170 HD
BRANCH  21  23
ATOM     23  C   UNL     1       3.925   0.111   0.584  1.00  0.00     0.041 A 
ATOM     24  C   UNL     1       4.526  -0.499  -0.533  1.00  0.00     0.026 A 
ATOM     25  C   UNL     1       4.738   0.560   1.637  1.00  0.00     0.026 A 
ATOM     26  C   UNL     1       5.911  -0.686  -0.574  1.00  0.00     0.002 A 
ATOM     27  C   UNL     1       6.123   0.370   1.593  1.00  0.00     0.002 A 
ATOM     28  C   UNL     1       6.708  -0.256   0.490  1.00  0.00     0.000 A 
ENDBRANCH  21  23
ENDBRANCH  18  19
ENDBRANCH   2  17
TORSDOF 5
