REMARK SMILES CC(C)c1cccc(C(C)C)c1OCOP(=O)(O)O
REMARK SMILES IDX 14 1 13 2 12 3 4 4 5 5 6 6 8 7 7 8 2 9 1 10 3 11 9 12 10 13
REMARK SMILES IDX 11 14 15 15 16 16 17 17 18 18 19 20
REMARK H PARENT 18 19 19 21
REMARK Flexibility Score: inf
ROOT
ATOM      1  C   UNL     1       1.079  -1.397  -1.056  1.00  0.00     0.407 C 
ENDROOT
BRANCH   1   2
ATOM      2  O   UNL     1       0.598  -0.924   0.202  1.00  0.00    -0.466 OA
BRANCH   2   3
ATOM      3  C   UNL     1      -0.465  -0.016   0.295  1.00  0.00     0.129 A 
ATOM      4  C   UNL     1      -1.802  -0.468   0.148  1.00  0.00    -0.003 A 
ATOM      5  C   UNL     1      -2.848   0.473   0.188  1.00  0.00     0.008 A 
ATOM      6  C   UNL     1      -2.582   1.824   0.389  1.00  0.00     0.001 A 
ATOM      7  C   UNL     1      -0.201   1.352   0.549  1.00  0.00    -0.003 A 
ATOM      8  C   UNL     1      -1.275   2.262   0.576  1.00  0.00     0.008 A 
BRANCH   4   9
ATOM      9  C   UNL     1      -2.129  -1.948  -0.007  1.00  0.00     0.017 C 
ATOM     10  C   UNL     1      -2.823  -2.226  -1.347  1.00  0.00     0.012 C 
ATOM     11  C   UNL     1      -2.979  -2.452   1.166  1.00  0.00     0.012 C 
ENDBRANCH   4   9
BRANCH   7  12
ATOM     12  C   UNL     1       1.216   1.854   0.784  1.00  0.00     0.017 C 
ATOM     13  C   UNL     1       1.353   2.525   2.157  1.00  0.00     0.012 C 
ATOM     14  C   UNL     1       1.659   2.800  -0.338  1.00  0.00     0.012 C 
ENDBRANCH   7  12
ENDBRANCH   2   3
ENDBRANCH   1   2
BRANCH   1  15
ATOM     15  O   UNL     1       1.914  -0.430  -1.650  1.00  0.00    -0.249 OA
BRANCH  15  16
ATOM     16  P   UNL     1       3.526  -0.700  -1.156  1.00  0.00     0.472 P 
ATOM     17  O   UNL     1       4.345   0.535  -1.455  1.00  0.00    -0.228 OA
BRANCH  16  18
ATOM     18  O   UNL     1       3.596  -1.026   0.504  1.00  0.00    -0.303 OA
ATOM     19  H   UNL     1       4.548  -1.231   0.681  1.00  0.00     0.223 HD
ENDBRANCH  16  18
BRANCH  16  20
ATOM     20  O   UNL     1       4.163  -2.014  -2.011  1.00  0.00    -0.303 OA
ATOM     21  H   UNL     1       3.994  -1.801  -2.964  1.00  0.00     0.223 HD
ENDBRANCH  16  20
ENDBRANCH  15  16
ENDBRANCH   1  15
TORSDOF 8
