REMARK SMILES COC(=O)[C@H](c1ccccc1)[C@H]1CCCCN1
REMARK SMILES IDX 5 1 3 2 4 3 2 4 1 5 6 6 7 7 11 8 8 9 10 10 9 11 12 12 13 13
REMARK SMILES IDX 17 14 14 15 16 16 15 18
REMARK H PARENT 17 17
REMARK Flexibility Score: inf
ROOT
ATOM      1  C   UNL     1       0.521   0.050   0.913  1.00  0.00     0.146 C 
ENDROOT
BRANCH   1   2
ATOM      2  C   UNL     1       1.285   1.336   1.094  1.00  0.00     0.314 C 
ATOM      3  O   UNL     1       1.884   1.556   2.183  1.00  0.00    -0.252 OA
BRANCH   2   4
ATOM      4  O   UNL     1       1.362   2.258   0.045  1.00  0.00    -0.469 OA
ATOM      5  C   UNL     1       2.080   3.481   0.150  1.00  0.00     0.282 C 
ENDBRANCH   2   4
ENDBRANCH   1   2
BRANCH   1   6
ATOM      6  C   UNL     1       1.398  -0.943   0.169  1.00  0.00    -0.032 A 
ATOM      7  C   UNL     1       1.800  -0.706  -1.160  1.00  0.00     0.004 A 
ATOM      8  C   UNL     1       1.820  -2.124   0.807  1.00  0.00     0.004 A 
ATOM      9  C   UNL     1       2.602  -1.632  -1.833  1.00  0.00     0.000 A 
ATOM     10  C   UNL     1       2.622  -3.047   0.129  1.00  0.00     0.000 A 
ATOM     11  C   UNL     1       3.013  -2.801  -1.189  1.00  0.00     0.000 A 
ENDBRANCH   1   6
BRANCH   1  12
ATOM     12  C   UNL     1      -0.854   0.275   0.215  1.00  0.00     0.072 C 
ATOM     13  C   UNL     1      -1.593  -1.071   0.018  1.00  0.00     0.020 C 
ATOM     14  N   UNL     1      -1.694   1.179   1.030  1.00  0.00    -0.313 NA
ATOM     15  C   UNL     1      -2.971  -0.853  -0.612  1.00  0.00     0.003 C 
ATOM     16  C   UNL     1      -2.978   1.453   0.370  1.00  0.00     0.081 C 
ATOM     17  H   UNL     1      -1.210   2.102   1.124  1.00  0.00     0.123 HD
ATOM     18  C   UNL     1      -3.778   0.161   0.196  1.00  0.00     0.015 C 
ENDBRANCH   1  12
TORSDOF 4
