REMARK SMILES CC1=C(C)C(=O)C(C(CCCCCC(=O)O)c2ccccc2)=C(C)C1=O
REMARK SMILES IDX 11 1 10 2 9 3 8 4 7 5 1 6 2 7 3 8 25 9 4 10 5 11 23 12 26 13
REMARK SMILES IDX 6 14 24 15 17 16 18 17 22 18 19 19 21 20 20 21 12 22 13 23
REMARK SMILES IDX 14 24 15 25 16 26
REMARK H PARENT 16 27
REMARK Flexibility Score: inf
ROOT
ATOM      1  C   UNL     1       3.500   0.550  -0.126  1.00  0.00     0.001 C 
ENDROOT
BRANCH   1   2
ATOM      2  C   UNL     1       2.232   0.451   0.736  1.00  0.00     0.001 C 
BRANCH   2   3
ATOM      3  C   UNL     1       0.964   0.190  -0.099  1.00  0.00     0.013 C 
BRANCH   3   4
ATOM      4  C   UNL     1      -0.334   0.340   0.738  1.00  0.00     0.054 C 
BRANCH   4   5
ATOM      5  C   UNL     1      -1.503  -0.405   0.070  1.00  0.00     0.014 C 
ATOM      6  C   UNL     1      -4.863  -2.811  -1.558  1.00  0.00     0.049 C 
ATOM      7  C   UNL     1      -3.693  -2.047  -0.977  1.00  0.00     0.003 C 
ATOM      8  C   UNL     1      -2.926  -2.575   0.001  1.00  0.00     0.003 C 
ATOM      9  C   UNL     1      -3.422  -0.669  -1.454  1.00  0.00     0.185 C 
ATOM     10  C   UNL     1      -3.186  -3.964   0.542  1.00  0.00     0.049 C 
ATOM     11  C   UNL     1      -1.764  -1.807   0.515  1.00  0.00     0.186 C 
ATOM     12  C   UNL     1      -2.268   0.112  -0.932  1.00  0.00     0.004 C 
ATOM     13  O   UNL     1      -4.195  -0.147  -2.304  1.00  0.00    -0.289 OA
ATOM     14  O   UNL     1      -0.973  -2.363   1.326  1.00  0.00    -0.289 OA
ATOM     15  C   UNL     1      -2.050   1.496  -1.503  1.00  0.00     0.049 C 
ENDBRANCH   4   5
BRANCH   4  16
ATOM     16  C   UNL     1      -0.706   1.751   1.189  1.00  0.00    -0.040 A 
ATOM     17  C   UNL     1      -1.719   1.894   2.158  1.00  0.00     0.004 A 
ATOM     18  C   UNL     1      -0.089   2.917   0.684  1.00  0.00     0.004 A 
ATOM     19  C   UNL     1      -2.108   3.160   2.604  1.00  0.00     0.000 A 
ATOM     20  C   UNL     1      -0.482   4.181   1.136  1.00  0.00     0.000 A 
ATOM     21  C   UNL     1      -1.490   4.302   2.094  1.00  0.00     0.000 A 
ENDBRANCH   4  16
ENDBRANCH   3   4
ENDBRANCH   2   3
ENDBRANCH   1   2
BRANCH   1  22
ATOM     22  C   UNL     1       3.896  -0.797  -0.754  1.00  0.00     0.012 C 
BRANCH  22  23
ATOM     23  C   UNL     1       5.210  -0.705  -1.541  1.00  0.00     0.122 C 
BRANCH  23  24
ATOM     24  C   UNL     1       6.388  -0.517  -0.634  1.00  0.00     0.303 C 
ATOM     25  O   UNL     1       6.935   0.614  -0.534  1.00  0.00    -0.252 OA
BRANCH  24  26
ATOM     26  O   UNL     1       6.861  -1.588   0.117  1.00  0.00    -0.481 OA
ATOM     27  H   UNL     1       7.650  -1.475   0.742  1.00  0.00     0.296 HD
ENDBRANCH  24  26
ENDBRANCH  23  24
ENDBRANCH  22  23
ENDBRANCH   1  22
TORSDOF 9
