REMARK SMILES Nc1ccncc1
REMARK SMILES IDX 2 1 3 2 4 3 5 4 6 5 7 6 1 7
REMARK H PARENT 1 8 1 9
REMARK Flexibility Score: inf
ROOT
ATOM      1  C   UNL     1       0.671   0.008   0.006  1.00  0.00     0.034 A 
ATOM      2  C   UNL     1      -0.054   1.023   0.644  1.00  0.00     0.045 A 
ATOM      3  C   UNL     1      -1.450   0.988   0.620  1.00  0.00     0.113 A 
ATOM      4  N   UNL     1      -2.097  -0.024  -0.018  1.00  0.00    -0.265 NA
ATOM      5  C   UNL     1      -1.416  -1.021  -0.645  1.00  0.00     0.113 A 
ATOM      6  C   UNL     1      -0.019  -1.023  -0.645  1.00  0.00     0.045 A 
ENDROOT
BRANCH   1   7
ATOM      7  N   UNL     1       2.100   0.024   0.018  1.00  0.00    -0.399 N 
ATOM      8  H   UNL     1       2.648  -0.729  -0.456  1.00  0.00     0.156 HD
ATOM      9  H   UNL     1       2.622   0.790   0.501  1.00  0.00     0.156 HD
ENDBRANCH   1   7
TORSDOF 1
