REMARK SMILES C[C@@H]1O[C@@H](O[C@H]2C[C@](O)(C(=O)CO)Cc3c(O)c4c(c(O)c32)C(=O)c2ccccc2C4=O)[C@H](I)[C@H](O)[C@H]1O
REMARK SMILES IDX 6 1 7 2 8 3 14 4 15 5 22 6 20 7 19 8 23 9 24 10 25 11 26 12
REMARK SMILES IDX 27 13 28 14 29 15 30 16 31 17 32 18 18 19 16 20 5 21 4 22
REMARK SMILES IDX 1 23 2 24 3 25 37 26 35 27 33 28 34 29 38 30 36 32 9 34
REMARK SMILES IDX 10 36 11 37 12 38 13 39 21 41 17 43
REMARK H PARENT 38 31 36 33 9 35 13 40 21 42 17 44
REMARK Flexibility Score: inf
ROOT
ATOM      1  C   UNL     1      -0.715   0.394  -0.097  1.00  0.00     0.159 C 
ATOM      2  C   UNL     1      -0.987   1.491   0.961  1.00  0.00     0.081 C 
ATOM      3  C   UNL     1      -0.239   2.839   0.680  1.00  0.00     0.132 C 
ATOM      4  C   UNL     1       0.889   2.668  -0.368  1.00  0.00     0.083 C 
ATOM      5  C   UNL     1       1.605   1.340  -0.213  1.00  0.00     0.008 A 
ATOM      6  C   UNL     1       0.798   0.184  -0.198  1.00  0.00     0.031 A 
ATOM      7  C   UNL     1       1.403  -1.090  -0.308  1.00  0.00     0.133 A 
ATOM      8  C   UNL     1       2.809  -1.197  -0.458  1.00  0.00     0.080 A 
ATOM      9  C   UNL     1       3.463  -2.490  -0.810  1.00  0.00     0.198 C 
ATOM     10  O   UNL     1       2.807  -3.410  -1.370  1.00  0.00    -0.288 OA
ATOM     11  C   UNL     1       4.914  -2.667  -0.603  1.00  0.00     0.034 A 
ATOM     12  C   UNL     1       5.502  -3.943  -0.682  1.00  0.00     0.013 A 
ATOM     13  C   UNL     1       6.878  -4.098  -0.504  1.00  0.00     0.001 A 
ATOM     14  C   UNL     1       7.680  -2.984  -0.253  1.00  0.00     0.001 A 
ATOM     15  C   UNL     1       7.108  -1.712  -0.180  1.00  0.00     0.013 A 
ATOM     16  C   UNL     1       5.721  -1.544  -0.353  1.00  0.00     0.034 A 
ATOM     17  C   UNL     1       5.106  -0.199  -0.297  1.00  0.00     0.198 C 
ATOM     18  O   UNL     1       5.856   0.813  -0.228  1.00  0.00    -0.288 OA
ATOM     19  C   UNL     1       3.619  -0.046  -0.314  1.00  0.00     0.080 A 
ATOM     20  C   UNL     1       3.013   1.225  -0.181  1.00  0.00     0.131 A 
ENDROOT
BRANCH   1  21
ATOM     21  O   UNL     1      -1.382  -0.802   0.275  1.00  0.00    -0.343 OA
BRANCH  21  22
ATOM     22  C   UNL     1      -2.780  -0.752   0.026  1.00  0.00     0.266 C 
ATOM     23  C   UNL     1      -5.345   0.785   0.592  1.00  0.00     0.041 C 
ATOM     24  C   UNL     1      -4.850  -0.555   1.164  1.00  0.00     0.149 C 
ATOM     25  O   UNL     1      -3.434  -0.609   1.277  1.00  0.00    -0.346 OA
ATOM     26  C   UNL     1      -5.441  -1.801   0.458  1.00  0.00     0.173 C 
ATOM     27  C   UNL     1      -4.711  -2.112  -0.865  1.00  0.00     0.163 C 
ATOM     28  C   UNL     1      -3.192  -2.069  -0.650  1.00  0.00     0.140 C 
ATOM     29  I   UNL     1      -2.159  -2.338  -2.518  1.00  0.00    -0.074 I 
BRANCH  26  30
ATOM     30  O   UNL     1      -5.329  -2.902   1.324  1.00  0.00    -0.388 OA
ATOM     31  H   UNL     1      -5.970  -3.589   1.003  1.00  0.00     0.211 HD
ENDBRANCH  26  30
BRANCH  27  32
ATOM     32  O   UNL     1      -5.085  -1.195  -1.862  1.00  0.00    -0.389 OA
ATOM     33  H   UNL     1      -6.001  -1.444  -2.152  1.00  0.00     0.211 HD
ENDBRANCH  27  32
ENDBRANCH  21  22
ENDBRANCH   1  21
BRANCH   3  34
ATOM     34  O   UNL     1       0.363   3.293   1.872  1.00  0.00    -0.382 OA
ATOM     35  H   UNL     1      -0.340   3.340   2.573  1.00  0.00     0.212 HD
ENDBRANCH   3  34
BRANCH   3  36
ATOM     36  C   UNL     1      -1.219   3.885   0.151  1.00  0.00     0.190 C 
ATOM     37  O   UNL     1      -1.931   3.609  -0.804  1.00  0.00    -0.294 OA
BRANCH  36  38
ATOM     38  C   UNL     1      -1.326   5.263   0.755  1.00  0.00     0.234 C 
BRANCH  38  39
ATOM     39  O   UNL     1      -0.092   5.925   0.682  1.00  0.00    -0.388 OA
ATOM     40  H   UNL     1       0.041   6.173  -0.270  1.00  0.00     0.211 HD
ENDBRANCH  38  39
ENDBRANCH  36  38
ENDBRANCH   3  36
BRANCH   7  41
ATOM     41  O   UNL     1       0.600  -2.233  -0.238  1.00  0.00    -0.507 OA
ATOM     42  H   UNL     1       0.947  -3.148   0.014  1.00  0.00     0.293 HD
ENDBRANCH   7  41
BRANCH  20  43
ATOM     43  O   UNL     1       3.831   2.348  -0.011  1.00  0.00    -0.507 OA
ATOM     44  H   UNL     1       3.508   3.245   0.324  1.00  0.00     0.293 HD
ENDBRANCH  20  43
TORSDOF 10
