REMARK SMILES O=c1cc(-c2ccccc2)oc2ccc3ccccc3c12
REMARK SMILES IDX 1 1 2 2 3 3 4 4 11 5 12 6 21 7 20 8 19 9 18 10 17 11 16 12
REMARK SMILES IDX 15 13 14 14 13 15 5 16 6 17 10 18 7 19 9 20 8 21
REMARK H PARENT
REMARK Flexibility Score: inf
ROOT
ATOM      1  O   UNL     1      -0.879  -2.585   1.050  1.00  0.00    -0.289 OA
ATOM      2  C   UNL     1      -0.414  -1.504   0.608  1.00  0.00     0.193 A 
ATOM      3  C   UNL     1       0.975  -1.393   0.529  1.00  0.00     0.100 A 
ATOM      4  C   UNL     1       1.556  -0.213   0.045  1.00  0.00     0.138 A 
ATOM      5  O   UNL     1       0.759   0.780  -0.331  1.00  0.00    -0.456 OA
ATOM      6  C   UNL     1      -0.567   0.731  -0.279  1.00  0.00     0.139 A 
ATOM      7  C   UNL     1      -1.245  -0.424   0.199  1.00  0.00     0.073 A 
ATOM      8  C   UNL     1      -2.687  -0.411   0.229  1.00  0.00    -0.003 A 
ATOM      9  C   UNL     1      -3.488  -1.494   0.681  1.00  0.00     0.009 A 
ATOM     10  C   UNL     1      -4.883  -1.413   0.683  1.00  0.00     0.001 A 
ATOM     11  C   UNL     1      -5.524  -0.262   0.241  1.00  0.00     0.001 A 
ATOM     12  C   UNL     1      -4.775   0.819  -0.209  1.00  0.00     0.009 A 
ATOM     13  C   UNL     1      -3.372   0.760  -0.220  1.00  0.00    -0.017 A 
ATOM     14  C   UNL     1      -2.658   1.869  -0.680  1.00  0.00     0.012 A 
ATOM     15  C   UNL     1      -1.273   1.852  -0.707  1.00  0.00     0.048 A 
ENDROOT
BRANCH   4  16
ATOM     16  C   UNL     1       3.034  -0.015  -0.071  1.00  0.00     0.017 A 
ATOM     17  C   UNL     1       3.973  -1.005   0.300  1.00  0.00     0.012 A 
ATOM     18  C   UNL     1       3.524   1.210  -0.571  1.00  0.00     0.012 A 
ATOM     19  C   UNL     1       5.346  -0.770   0.172  1.00  0.00     0.001 A 
ATOM     20  C   UNL     1       4.897   1.438  -0.696  1.00  0.00     0.001 A 
ATOM     21  C   UNL     1       5.807   0.449  -0.324  1.00  0.00     0.000 A 
ENDBRANCH   4  16
TORSDOF 1
