REMARK SMILES CCNCCc1ccc(CN(CC)c2cc(OC)ccc2[C@@H]2CCc3cc(O)ccc3C2)cc1
REMARK SMILES IDX 6 1 7 2 8 3 9 4 33 5 34 6 5 7 4 8 3 9 2 11 1 12 10 13 11 14
REMARK SMILES IDX 12 15 13 16 14 17 21 18 15 19 20 20 16 21 19 22 22 23 23 24
REMARK SMILES IDX 32 25 24 26 31 27 25 28 30 29 26 30 29 31 27 32 28 33 17 35
REMARK SMILES IDX 18 36
REMARK H PARENT 3 10 28 34
REMARK Flexibility Score: inf
ROOT
ATOM      1  C   UNL     1       4.330  -0.850  -0.905  1.00  0.00    -0.047 A 
ATOM      2  C   UNL     1       3.545  -0.461   0.192  1.00  0.00     0.004 A 
ATOM      3  C   UNL     1       2.271   0.077  -0.007  1.00  0.00     0.006 A 
ATOM      4  C   UNL     1       1.765   0.239  -1.307  1.00  0.00    -0.029 A 
ATOM      5  C   UNL     1       2.555  -0.137  -2.404  1.00  0.00     0.006 A 
ATOM      6  C   UNL     1       3.831  -0.672  -2.205  1.00  0.00     0.004 A 
ENDROOT
BRANCH   1   7
ATOM      7  C   UNL     1       5.712  -1.410  -0.692  1.00  0.00     0.051 C 
BRANCH   7   8
ATOM      8  C   UNL     1       6.780  -0.312  -0.764  1.00  0.00     0.085 C 
BRANCH   8   9
ATOM      9  N   UNL     1       6.570   0.698   0.286  1.00  0.00    -0.317 NA
ATOM     10  H   UNL     1       6.919   1.625  -0.054  1.00  0.00     0.122 HD
BRANCH   9  11
ATOM     11  C   UNL     1       7.236   0.350   1.553  1.00  0.00     0.077 C 
ATOM     12  C   UNL     1       8.706   0.777   1.572  1.00  0.00     0.020 C 
ENDBRANCH   9  11
ENDBRANCH   8   9
ENDBRANCH   7   8
ENDBRANCH   1   7
BRANCH   4  13
ATOM     13  C   UNL     1       0.365   0.748  -1.516  1.00  0.00     0.152 C 
BRANCH  13  14
ATOM     14  N   UNL     1      -0.590  -0.366  -1.506  1.00  0.00    -0.367 N 
BRANCH  14  15
ATOM     15  C   UNL     1      -0.779  -1.203  -2.699  1.00  0.00     0.113 C 
ATOM     16  C   UNL     1      -0.170  -2.589  -2.502  1.00  0.00     0.027 C 
ENDBRANCH  14  15
BRANCH  14  17
ATOM     17  C   UNL     1      -1.306  -0.673  -0.297  1.00  0.00     0.044 A 
ATOM     18  C   UNL     1      -2.603  -0.151  -0.054  1.00  0.00    -0.021 A 
ATOM     19  C   UNL     1      -0.697  -1.511   0.648  1.00  0.00     0.072 A 
ATOM     20  C   UNL     1      -3.251  -0.509   1.147  1.00  0.00     0.010 A 
ATOM     21  C   UNL     1      -1.351  -1.844   1.843  1.00  0.00     0.120 A 
ATOM     22  C   UNL     1      -2.631  -1.341   2.079  1.00  0.00     0.047 A 
BRANCH  18  23
ATOM     23  C   UNL     1      -3.268   0.807  -1.047  1.00  0.00     0.026 C 
ATOM     24  C   UNL     1      -3.090   2.284  -0.656  1.00  0.00     0.013 C 
ATOM     25  C   UNL     1      -4.750   0.477  -1.333  1.00  0.00     0.044 C 
ATOM     26  C   UNL     1      -3.936   2.679   0.556  1.00  0.00     0.036 C 
ATOM     27  C   UNL     1      -5.735   1.139  -0.395  1.00  0.00    -0.044 A 
ATOM     28  C   UNL     1      -5.368   2.222   0.438  1.00  0.00    -0.041 A 
ATOM     29  C   UNL     1      -7.071   0.709  -0.416  1.00  0.00     0.008 A 
ATOM     30  C   UNL     1      -6.336   2.819   1.262  1.00  0.00     0.050 A 
ATOM     31  C   UNL     1      -8.027   1.320   0.397  1.00  0.00     0.046 A 
ATOM     32  C   UNL     1      -7.663   2.373   1.238  1.00  0.00     0.115 A 
BRANCH  32  33
ATOM     33  O   UNL     1      -8.627   2.969   2.049  1.00  0.00    -0.508 OA
ATOM     34  H   UNL     1      -8.397   3.736   2.670  1.00  0.00     0.293 HD
ENDBRANCH  32  33
ENDBRANCH  18  23
BRANCH  21  35
ATOM     35  O   UNL     1      -0.766  -2.668   2.816  1.00  0.00    -0.497 OA
ATOM     36  C   UNL     1       0.540  -3.227   2.716  1.00  0.00     0.278 C 
ENDBRANCH  21  35
ENDBRANCH  14  17
ENDBRANCH  13  14
ENDBRANCH   4  13
TORSDOF 11
