REMARK SMILES c1ccc2c(c1)CCCC2C1=NCCN1
REMARK SMILES IDX 10 1 9 2 8 3 7 4 5 5 6 6 1 7 2 8 3 9 4 10 11 11 14 12 13 13
REMARK SMILES IDX 15 14 12 15
REMARK H PARENT 15 16
REMARK Flexibility Score: inf
ROOT
ATOM      1  C   UNL     1       0.260  -0.712   0.693  1.00  0.00     0.085 C 
ATOM      2  C   UNL     1      -0.171  -2.020   0.004  1.00  0.00     0.017 C 
ATOM      3  C   UNL     1      -1.651  -2.301   0.246  1.00  0.00     0.006 C 
ATOM      4  C   UNL     1      -2.501  -1.202  -0.393  1.00  0.00     0.036 C 
ATOM      5  C   UNL     1      -2.055   0.177   0.028  1.00  0.00    -0.044 A 
ATOM      6  C   UNL     1      -2.954   1.247  -0.109  1.00  0.00     0.004 A 
ATOM      7  C   UNL     1      -2.578   2.540   0.254  1.00  0.00     0.000 A 
ATOM      8  C   UNL     1      -1.300   2.780   0.759  1.00  0.00     0.000 A 
ATOM      9  C   UNL     1      -0.389   1.731   0.886  1.00  0.00     0.005 A 
ATOM     10  C   UNL     1      -0.736   0.424   0.490  1.00  0.00    -0.034 A 
ENDROOT
BRANCH   1  11
ATOM     11  C   UNL     1       1.633  -0.332   0.205  1.00  0.00     0.104 C 
ATOM     12  C   UNL     1       3.316   0.391  -1.201  1.00  0.00     0.137 C 
ATOM     13  C   UNL     1       3.862  -0.053   0.165  1.00  0.00     0.165 C 
ATOM     14  N   UNL     1       1.888   0.178  -1.089  1.00  0.00    -0.371 N 
ATOM     15  N   UNL     1       2.692  -0.484   0.922  1.00  0.00    -0.270 NA
ATOM     16  H   UNL     1       1.177   0.365  -1.831  1.00  0.00     0.161 HD
ENDBRANCH   1  11
TORSDOF 1
