REMARK SMILES NC(=O)c1cn(Cc2c(F)cccc2F)nn1
REMARK SMILES IDX 4 1 5 2 6 3 16 4 17 5 2 6 1 7 3 10 7 11 8 12 9 13 14 14
REMARK SMILES IDX 10 15 11 16 13 17 15 18 12 19
REMARK H PARENT 1 8 1 9
REMARK Flexibility Score: inf
ROOT
ATOM      1  C   UNL     1       2.587  -0.095   0.285  1.00  0.00     0.170 A 
ATOM      2  C   UNL     1       1.473  -0.504   0.986  1.00  0.00     0.145 A 
ATOM      3  N   UNL     1       0.706  -1.168   0.105  1.00  0.00    -0.247 N 
ATOM      4  N   UNL     1       1.306  -1.153  -1.074  1.00  0.00    -0.066 NA
ATOM      5  N   UNL     1       2.462  -0.509  -0.993  1.00  0.00    -0.125 NA
ENDROOT
BRANCH   1   6
ATOM      6  C   UNL     1       3.725   0.673   0.810  1.00  0.00     0.270 C 
ATOM      7  N   UNL     1       4.814   1.034  -0.041  1.00  0.00    -0.364 N 
ATOM      8  H   UNL     1       4.825   0.761  -1.048  1.00  0.00     0.160 HD
ATOM      9  H   UNL     1       5.619   1.579   0.340  1.00  0.00     0.160 HD
ATOM     10  O   UNL     1       3.743   1.018   2.022  1.00  0.00    -0.268 OA
ENDBRANCH   1   6
BRANCH   3  11
ATOM     11  C   UNL     1      -0.615  -1.735   0.352  1.00  0.00     0.187 C 
BRANCH  11  12
ATOM     12  C   UNL     1      -1.675  -0.691   0.114  1.00  0.00     0.045 A 
ATOM     13  C   UNL     1      -2.189  -0.483  -1.180  1.00  0.00     0.131 A 
ATOM     14  C   UNL     1      -2.114   0.133   1.168  1.00  0.00     0.131 A 
ATOM     15  F   UNL     1      -1.763  -1.240  -2.223  1.00  0.00    -0.207 F 
ATOM     16  C   UNL     1      -3.145   0.512  -1.406  1.00  0.00     0.040 A 
ATOM     17  C   UNL     1      -3.070   1.126   0.933  1.00  0.00     0.040 A 
ATOM     18  F   UNL     1      -1.616  -0.021   2.421  1.00  0.00    -0.207 F 
ATOM     19  C   UNL     1      -3.587   1.314  -0.351  1.00  0.00     0.006 A 
ENDBRANCH  11  12
ENDBRANCH   3  11
TORSDOF 3
