REMARK SMILES COc1ccc(OC(=O)N(CC(=O)O)Cc2ccc(OCCc3nc(-c4ccccc4)oc3C)cc2)cc1
REMARK SMILES IDX 16 1 17 2 18 3 19 4 35 5 36 6 15 7 10 8 8 9 9 10 7 11 6 12
REMARK SMILES IDX 3 13 4 14 38 15 5 16 37 17 2 18 1 19 11 20 12 21 13 22 14 23
REMARK SMILES IDX 20 25 21 26 22 27 23 28 33 29 24 30 34 31 32 32 25 33 26 34
REMARK SMILES IDX 27 35 31 36 28 37 30 38 29 39
REMARK H PARENT 14 24
REMARK Flexibility Score: inf
ROOT
ATOM      1  C   UNL     1      -1.428  -2.462   1.803  1.00  0.00    -0.028 A 
ATOM      2  C   UNL     1      -0.769  -3.602   1.318  1.00  0.00     0.009 A 
ATOM      3  C   UNL     1       0.450  -3.484   0.651  1.00  0.00     0.047 A 
ATOM      4  C   UNL     1       1.041  -2.230   0.465  1.00  0.00     0.119 A 
ATOM      5  C   UNL     1       0.376  -1.081   0.939  1.00  0.00     0.047 A 
ATOM      6  C   UNL     1      -0.850  -1.199   1.600  1.00  0.00     0.009 A 
ENDROOT
BRANCH   1   7
ATOM      7  C   UNL     1      -2.757  -2.590   2.495  1.00  0.00     0.159 C 
BRANCH   7   8
ATOM      8  N   UNL     1      -3.852  -2.490   1.521  1.00  0.00    -0.292 N 
BRANCH   8   9
ATOM      9  C   UNL     1      -4.464  -1.219   1.221  1.00  0.00     0.416 C 
ATOM     10  O   UNL     1      -4.125  -0.187   1.863  1.00  0.00    -0.224 OA
BRANCH   9  11
ATOM     11  O   UNL     1      -5.476  -1.153   0.250  1.00  0.00    -0.410 OA
BRANCH  11  12
ATOM     12  C   UNL     1      -6.043   0.024  -0.262  1.00  0.00     0.133 A 
ATOM     13  C   UNL     1      -7.280   2.336  -1.297  1.00  0.00     0.119 A 
ATOM     14  C   UNL     1      -5.927   2.368  -0.908  1.00  0.00     0.050 A 
ATOM     15  C   UNL     1      -7.991   1.135  -1.191  1.00  0.00     0.050 A 
ATOM     16  C   UNL     1      -5.312   1.219  -0.399  1.00  0.00     0.051 A 
ATOM     17  C   UNL     1      -7.375  -0.012  -0.685  1.00  0.00     0.051 A 
BRANCH  13  18
ATOM     18  O   UNL     1      -7.952   3.466  -1.791  1.00  0.00    -0.497 OA
ATOM     19  C   UNL     1      -7.361   4.754  -1.943  1.00  0.00     0.278 C 
ENDBRANCH  13  18
ENDBRANCH  11  12
ENDBRANCH   9  11
ENDBRANCH   8   9
BRANCH   8  20
ATOM     20  C   UNL     1      -4.268  -3.686   0.776  1.00  0.00     0.245 C 
BRANCH  20  21
ATOM     21  C   UNL     1      -5.636  -4.119   1.200  1.00  0.00     0.323 C 
ATOM     22  O   UNL     1      -6.512  -4.386   0.333  1.00  0.00    -0.250 OA
BRANCH  21  23
ATOM     23  O   UNL     1      -5.928  -4.269   2.553  1.00  0.00    -0.480 OA
ATOM     24  H   UNL     1      -6.836  -4.604   2.854  1.00  0.00     0.296 HD
ENDBRANCH  21  23
ENDBRANCH  20  21
ENDBRANCH   8  20
ENDBRANCH   7   8
ENDBRANCH   1   7
BRANCH   4  25
ATOM     25  O   UNL     1       2.284  -2.171  -0.182  1.00  0.00    -0.493 OA
BRANCH  25  26
ATOM     26  C   UNL     1       3.045  -0.978  -0.361  1.00  0.00     0.236 C 
BRANCH  26  27
ATOM     27  C   UNL     1       4.335  -1.314  -1.106  1.00  0.00     0.101 C 
BRANCH  27  28
ATOM     28  C   UNL     1       5.250  -0.128  -1.141  1.00  0.00     0.086 A 
ATOM     29  C   UNL     1       5.225   0.924  -2.036  1.00  0.00     0.125 A 
ATOM     30  N   UNL     1       6.175   0.121  -0.196  1.00  0.00    -0.214 NA
ATOM     31  C   UNL     1       4.321   1.100  -3.211  1.00  0.00     0.090 C 
ATOM     32  O   UNL     1       6.119   1.797  -1.654  1.00  0.00    -0.441 OA
ATOM     33  C   UNL     1       6.686   1.316  -0.566  1.00  0.00     0.226 A 
BRANCH  33  34
ATOM     34  C   UNL     1       7.755   2.013   0.177  1.00  0.00     0.037 A 
ATOM     35  C   UNL     1       8.232   3.259  -0.269  1.00  0.00     0.014 A 
ATOM     36  C   UNL     1       8.311   1.443   1.338  1.00  0.00     0.014 A 
ATOM     37  C   UNL     1       9.243   3.922   0.438  1.00  0.00     0.001 A 
ATOM     38  C   UNL     1       9.320   2.108   2.039  1.00  0.00     0.001 A 
ATOM     39  C   UNL     1       9.787   3.345   1.590  1.00  0.00     0.000 A 
ENDBRANCH  33  34
ENDBRANCH  27  28
ENDBRANCH  26  27
ENDBRANCH  25  26
ENDBRANCH   4  25
TORSDOF 14
