REMARK SMILES CN1CCN2c3ncccc3Cc3ccccc3[C@H]2C1
REMARK SMILES IDX 19 1 20 2 2 3 1 4 3 5 4 6 5 7 6 8 11 9 12 10 13 11 14 12
REMARK SMILES IDX 15 13 16 14 17 15 18 16 10 17 9 18 8 19 7 20
REMARK H PARENT
REMARK Flexibility Score: inf
ROOT
ATOM      1  C   UNL     1       0.934   0.308  -0.350  1.00  0.00     0.128 C 
ATOM      2  C   UNL     1       2.339   0.576   0.248  1.00  0.00     0.114 C 
ATOM      3  N   UNL     1       3.258  -0.570   0.100  1.00  0.00    -0.302 NA
ATOM      4  C   UNL     1       3.752  -0.740  -1.278  1.00  0.00     0.105 C 
ATOM      5  C   UNL     1       2.691  -1.810   0.661  1.00  0.00     0.105 C 
ATOM      6  C   UNL     1       1.310  -2.136   0.085  1.00  0.00     0.134 C 
ATOM      7  N   UNL     1       0.419  -0.973   0.193  1.00  0.00    -0.347 N 
ATOM      8  C   UNL     1      -0.957  -1.232   0.557  1.00  0.00     0.132 A 
ATOM      9  C   UNL     1      -2.039  -0.784  -0.234  1.00  0.00    -0.001 A 
ATOM     10  C   UNL     1      -1.813   0.137  -1.394  1.00  0.00     0.075 C 
ATOM     11  C   UNL     1      -1.308   1.435  -0.834  1.00  0.00    -0.038 A 
ATOM     12  C   UNL     1      -2.174   2.541  -0.785  1.00  0.00     0.004 A 
ATOM     13  C   UNL     1      -1.791   3.710  -0.131  1.00  0.00     0.000 A 
ATOM     14  C   UNL     1      -0.551   3.781   0.497  1.00  0.00     0.000 A 
ATOM     15  C   UNL     1       0.318   2.689   0.465  1.00  0.00     0.006 A 
ATOM     16  C   UNL     1      -0.040   1.492  -0.201  1.00  0.00    -0.021 A 
ATOM     17  C   UNL     1      -3.347  -1.119   0.151  1.00  0.00     0.009 A 
ATOM     18  C   UNL     1      -3.565  -1.902   1.283  1.00  0.00     0.021 A 
ATOM     19  C   UNL     1      -2.473  -2.338   2.031  1.00  0.00     0.113 A 
ATOM     20  N   UNL     1      -1.213  -2.001   1.654  1.00  0.00    -0.239 NA
ENDROOT
TORSDOF 0
