REMARK SMILES CCCc1c(Cn2ccnc2-c2ncccc2F)ncn2nc(C)nc12
REMARK SMILES IDX 4 1 5 2 19 3 20 4 21 5 22 6 23 7 24 8 25 9 26 10 3 11 2 12
REMARK SMILES IDX 1 13 6 14 7 15 8 16 11 17 9 18 10 19 12 20 17 21 13 22 18 23
REMARK SMILES IDX 16 24 14 25 15 26
REMARK H PARENT
REMARK Flexibility Score: inf
ROOT
ATOM      1  C   UNL     1      -0.992  -0.123  -0.346  1.00  0.00     0.020 A 
ATOM      2  C   UNL     1       0.151  -0.974  -0.398  1.00  0.00     0.069 A 
ATOM      3  N   UNL     1       0.586  -1.596   0.743  1.00  0.00    -0.239 NA
ATOM      4  C   UNL     1      -0.030  -1.411   1.941  1.00  0.00     0.226 A 
ATOM      5  N   UNL     1      -1.096  -0.584   1.989  1.00  0.00    -0.202 N 
ATOM      6  N   UNL     1      -1.824  -0.272   3.042  1.00  0.00    -0.150 NA
ATOM      7  C   UNL     1      -2.758   0.580   2.558  1.00  0.00     0.148 A 
ATOM      8  C   UNL     1      -3.849   1.158   3.394  1.00  0.00     0.092 C 
ATOM      9  N   UNL     1      -2.650   0.797   1.221  1.00  0.00    -0.212 NA
ATOM     10  C   UNL     1      -1.578   0.041   0.915  1.00  0.00     0.162 A 
ENDROOT
BRANCH   1  11
ATOM     11  C   UNL     1      -1.601   0.551  -1.558  1.00  0.00     0.041 C 
BRANCH  11  12
ATOM     12  C   UNL     1      -2.903  -0.130  -2.008  1.00  0.00     0.002 C 
ATOM     13  C   UNL     1      -2.664  -1.521  -2.591  1.00  0.00     0.004 C 
ENDBRANCH  11  12
ENDBRANCH   1  11
BRANCH   2  14
ATOM     14  C   UNL     1       0.952  -1.191  -1.659  1.00  0.00     0.180 C 
BRANCH  14  15
ATOM     15  N   UNL     1       1.682   0.021  -2.053  1.00  0.00    -0.324 N 
ATOM     16  C   UNL     1       1.668   0.580  -3.276  1.00  0.00     0.108 A 
ATOM     17  C   UNL     1       2.488   0.818  -1.311  1.00  0.00     0.162 A 
ATOM     18  C   UNL     1       2.438   1.720  -3.239  1.00  0.00     0.131 A 
ATOM     19  N   UNL     1       2.952   1.880  -2.003  1.00  0.00    -0.235 NA
BRANCH  17  20
ATOM     20  C   UNL     1       2.819   0.601   0.104  1.00  0.00     0.141 A 
ATOM     21  C   UNL     1       3.518  -0.543   0.519  1.00  0.00     0.152 A 
ATOM     22  N   UNL     1       2.450   1.536   1.022  1.00  0.00    -0.250 NA
ATOM     23  F   UNL     1       3.940  -1.469  -0.379  1.00  0.00    -0.204 F 
ATOM     24  C   UNL     1       3.795  -0.718   1.877  1.00  0.00     0.043 A 
ATOM     25  C   UNL     1       2.714   1.384   2.347  1.00  0.00     0.112 A 
ATOM     26  C   UNL     1       3.387   0.247   2.800  1.00  0.00     0.023 A 
ENDBRANCH  17  20
ENDBRANCH  14  15
ENDBRANCH   2  14
TORSDOF 5
