REMARK SMILES CCCCN(CCCC)C(=O)CN1C[C@H](c2ccc3c(c2)OCO3)[C@@H](C(=O)O)[C@@H]1c1ccc(OC)cc1
REMARK SMILES IDX 5 1 10 2 11 3 4 4 3 5 2 6 1 7 6 8 7 9 8 10 9 11 12 12 13 13
REMARK SMILES IDX 14 14 29 15 15 16 25 17 30 18 31 19 37 20 32 21 36 22 33 23
REMARK SMILES IDX 34 24 35 25 16 26 21 27 17 28 20 29 18 30 19 31 22 32 24 33
REMARK SMILES IDX 23 34 26 35 27 36 28 37
REMARK H PARENT 28 38
REMARK Flexibility Score: inf
ROOT
ATOM      1  N   UNL     1       3.100   0.851   0.689  1.00  0.00    -0.342 N 
ATOM      2  C   UNL     1       1.685   0.619   0.907  1.00  0.00     0.236 C 
ATOM      3  O   UNL     1       1.068   1.300   1.772  1.00  0.00    -0.273 OA
ENDROOT
BRANCH   1   4
ATOM      4  C   UNL     1       3.723   2.095   1.177  1.00  0.00     0.119 C 
BRANCH   4   5
ATOM      5  C   UNL     1       4.650   1.865   2.385  1.00  0.00     0.021 C 
BRANCH   5   6
ATOM      6  C   UNL     1       3.931   1.354   3.647  1.00  0.00    -0.002 C 
ATOM      7  C   UNL     1       3.808  -0.170   3.686  1.00  0.00     0.004 C 
ENDBRANCH   5   6
ENDBRANCH   4   5
ENDBRANCH   1   4
BRANCH   1   8
ATOM      8  C   UNL     1       3.926  -0.105  -0.068  1.00  0.00     0.119 C 
BRANCH   8   9
ATOM      9  C   UNL     1       3.973   0.278  -1.556  1.00  0.00     0.021 C 
BRANCH   9  10
ATOM     10  C   UNL     1       4.515  -0.857  -2.438  1.00  0.00    -0.002 C 
ATOM     11  C   UNL     1       5.994  -1.149  -2.182  1.00  0.00     0.004 C 
ENDBRANCH   9  10
ENDBRANCH   8   9
ENDBRANCH   1   8
BRANCH   2  12
ATOM     12  C   UNL     1       0.924  -0.465   0.183  1.00  0.00     0.185 C 
BRANCH  12  13
ATOM     13  N   UNL     1      -0.460  -0.031  -0.104  1.00  0.00    -0.286 NA
ATOM     14  C   UNL     1      -0.515   1.047  -1.109  1.00  0.00     0.095 C 
ATOM     15  C   UNL     1      -1.275  -1.134  -0.636  1.00  0.00     0.102 C 
ATOM     16  C   UNL     1      -1.714   0.773  -2.032  1.00  0.00     0.049 C 
ATOM     17  C   UNL     1      -2.382  -0.479  -1.462  1.00  0.00     0.129 C 
BRANCH  15  18
ATOM     18  C   UNL     1      -1.845  -1.979   0.485  1.00  0.00    -0.030 A 
ATOM     19  C   UNL     1      -1.867  -3.378   0.368  1.00  0.00     0.009 A 
ATOM     20  C   UNL     1      -2.395  -1.380   1.632  1.00  0.00     0.009 A 
ATOM     21  C   UNL     1      -2.406  -4.167   1.389  1.00  0.00     0.047 A 
ATOM     22  C   UNL     1      -2.934  -2.170   2.652  1.00  0.00     0.047 A 
ATOM     23  C   UNL     1      -2.941  -3.565   2.544  1.00  0.00     0.118 A 
BRANCH  23  24
ATOM     24  O   UNL     1      -3.486  -4.312   3.599  1.00  0.00    -0.497 OA
ATOM     25  C   UNL     1      -3.537  -5.735   3.633  1.00  0.00     0.278 C 
ENDBRANCH  23  24
ENDBRANCH  15  18
BRANCH  16  26
ATOM     26  C   UNL     1      -2.677   1.944  -2.133  1.00  0.00    -0.039 A 
ATOM     27  C   UNL     1      -3.217   2.547  -0.969  1.00  0.00     0.054 A 
ATOM     28  C   UNL     1      -3.073   2.424  -3.410  1.00  0.00     0.008 A 
ATOM     29  C   UNL     1      -4.099   3.611  -1.129  1.00  0.00     0.166 A 
ATOM     30  C   UNL     1      -3.976   3.496  -3.525  1.00  0.00     0.051 A 
ATOM     31  C   UNL     1      -4.466   4.063  -2.354  1.00  0.00     0.165 A 
ATOM     32  O   UNL     1      -4.723   4.364  -0.155  1.00  0.00    -0.454 OA
ATOM     33  O   UNL     1      -5.346   5.119  -2.211  1.00  0.00    -0.454 OA
ATOM     34  C   UNL     1      -5.533   5.352  -0.809  1.00  0.00     0.468 C 
ENDBRANCH  16  26
BRANCH  17  35
ATOM     35  C   UNL     1      -2.918  -1.389  -2.537  1.00  0.00     0.309 C 
ATOM     36  O   UNL     1      -4.150  -1.647  -2.582  1.00  0.00    -0.252 OA
BRANCH  35  37
ATOM     37  O   UNL     1      -2.062  -1.939  -3.486  1.00  0.00    -0.481 OA
ATOM     38  H   UNL     1      -2.414  -2.549  -4.214  1.00  0.00     0.296 HD
ENDBRANCH  35  37
ENDBRANCH  17  35
ENDBRANCH  12  13
ENDBRANCH   2  12
TORSDOF 13
