REMARK SMILES C#C[C@]1(O)C=C[C@H]2[C@@H]3CCC4=CC(=O)CC[C@@H]4[C@H]3CC[C@@]21CC
REMARK SMILES IDX 21 1 20 2 19 3 18 4 8 5 9 6 10 7 11 8 12 9 13 10 14 11 15 12
REMARK SMILES IDX 16 13 17 14 7 15 6 16 5 17 3 18 22 19 23 20 4 21 2 23 1 24
REMARK H PARENT 4 22
REMARK Flexibility Score: inf
ROOT
ATOM      1  C   UNL     1      -2.120   0.180  -0.179  1.00  0.00     0.021 C 
ATOM      2  C   UNL     1      -1.562   1.009   1.007  1.00  0.00     0.012 C 
ATOM      3  C   UNL     1      -0.066   1.349   0.779  1.00  0.00     0.005 C 
ATOM      4  C   UNL     1       0.825   0.093   0.513  1.00  0.00    -0.000 C 
ATOM      5  C   UNL     1       0.227  -0.847  -0.584  1.00  0.00     0.001 C 
ATOM      6  C   UNL     1       1.034  -2.157  -0.608  1.00  0.00     0.009 C 
ATOM      7  C   UNL     1       2.489  -1.888  -0.996  1.00  0.00     0.032 C 
ATOM      8  C   UNL     1       3.107  -0.795  -0.154  1.00  0.00    -0.063 C 
ATOM      9  C   UNL     1       4.427  -0.854   0.098  1.00  0.00     0.046 C 
ATOM     10  C   UNL     1       5.140   0.254   0.747  1.00  0.00     0.155 C 
ATOM     11  O   UNL     1       6.364   0.136   1.021  1.00  0.00    -0.295 OA
ATOM     12  C   UNL     1       4.438   1.548   1.009  1.00  0.00     0.081 C 
ATOM     13  C   UNL     1       2.955   1.299   1.283  1.00  0.00     0.016 C 
ATOM     14  C   UNL     1       2.294   0.467   0.153  1.00  0.00     0.019 C 
ATOM     15  C   UNL     1      -1.254  -1.102  -0.242  1.00  0.00     0.025 C 
ATOM     16  C   UNL     1      -2.086  -2.028  -1.058  1.00  0.00    -0.023 C 
ATOM     17  C   UNL     1      -3.371  -1.733  -0.861  1.00  0.00     0.017 C 
ATOM     18  C   UNL     1      -3.541  -0.481  -0.027  1.00  0.00     0.149 C 
ENDROOT
BRANCH   1  19
ATOM     19  C   UNL     1      -2.072   1.020  -1.524  1.00  0.00     0.008 C 
ATOM     20  C   UNL     1      -2.659   2.439  -1.436  1.00  0.00     0.005 C 
ENDBRANCH   1  19
BRANCH  18  21
ATOM     21  O   UNL     1      -4.574   0.321  -0.542  1.00  0.00    -0.373 OA
ATOM     22  H   UNL     1      -5.410  -0.217  -0.543  1.00  0.00     0.213 HD
ENDBRANCH  18  21
BRANCH  18  23
ATOM     23  C   UNL     1      -3.859  -0.861   1.368  1.00  0.00    -0.067 C 
ATOM     24  C   UNL     1      -4.120  -1.171   2.504  1.00  0.00     0.007 C 
ENDBRANCH  18  23
TORSDOF 3
