REMARK SMILES CO[C@H]1C(=O)[C@]2(C)[C@@H](OC)C[C@H]3OC[C@@]3(OC(C)=O)[C@H]2[C@H](OC(=O)c2ccccc2)[C@]2(O)C[C@H](OC(=O)[C@H](O)[C@@H](NC(=O)OC(C)(C)C)c3ccccc3)C(C)=C1C2(C)C
REMARK SMILES IDX 36 1 37 2 35 3 34 4 31 5 33 6 58 7 57 8 59 9 60 10 55 11
REMARK SMILES IDX 56 12 21 13 20 14 6 15 15 16 7 17 8 18 12 20 14 21 11 22
REMARK SMILES IDX 13 23 16 24 17 25 18 26 19 27 9 28 10 29 22 30 23 31 24 32
REMARK SMILES IDX 25 33 26 34 30 35 27 36 29 37 28 38 32 39 3 41 2 42 1 43
REMARK SMILES IDX 4 44 5 45 38 47 39 48 40 50 41 51 42 52 43 54 44 55 45 56
REMARK SMILES IDX 46 57 47 58 48 59 49 60 50 61 54 62 51 63 53 64 52 65
REMARK H PARENT 32 40 39 49 41 53
REMARK Flexibility Score: 90.00
ROOT
ATOM      1  C   UNL     1       2.000  -0.120  -0.152  1.00  0.00     0.338 C 
ATOM      2  O   UNL     1       2.262  -1.245  -0.660  1.00  0.00    -0.249 OA
ENDROOT
BRANCH   1   3
ATOM      3  O   UNL     1       0.876   0.603  -0.579  1.00  0.00    -0.456 OA
BRANCH   3   4
ATOM      4  C   UNL     1       0.083   0.234  -1.714  1.00  0.00     0.205 C 
ATOM      5  C   UNL     1      -2.065  -1.313  -2.139  1.00  0.00     0.115 C 
ATOM      6  C   UNL     1      -0.679  -1.091  -1.408  1.00  0.00     0.090 C 
ATOM      7  C   UNL     1      -2.212  -0.311  -3.343  1.00  0.00     0.022 C 
ATOM      8  C   UNL     1      -2.022   1.104  -2.759  1.00  0.00    -0.023 C 
ATOM      9  C   UNL     1      -3.550  -0.547  -4.113  1.00  0.00     0.019 C 
ATOM     10  C   UNL     1      -1.101  -0.556  -4.430  1.00  0.00     0.019 C 
ATOM     11  C   UNL     1      -0.854   1.372  -2.093  1.00  0.00    -0.030 C 
ATOM     12  C   UNL     1      -0.441   2.787  -1.739  1.00  0.00     0.043 C 
BRANCH   5  13
ATOM     13  C   UNL     1      -3.261  -1.253  -1.078  1.00  0.00     0.218 C 
BRANCH  13  14
ATOM     14  C   UNL     1      -3.479   0.108  -0.266  1.00  0.00     0.098 C 
ATOM     15  C   UNL     1      -4.641   1.074  -0.773  1.00  0.00     0.066 CG0
ATOM     16  C   UNL     1      -3.435  -0.099   1.300  1.00  0.00     0.169 C 
ATOM     17  C   UNL     1      -6.044   0.389  -0.684  1.00  0.00     0.023 C 
ATOM     18  C   UNL     1      -4.627   2.356   0.119  1.00  0.00     0.134 C 
ATOM     19  G   UNL     1      -4.448   1.566  -2.233  1.00  0.00     0.000 G0
ATOM     20  C   UNL     1      -4.150   0.909   2.207  1.00  0.00     0.168 C 
ATOM     21  C   UNL     1      -4.432  -1.076   1.911  1.00  0.00     0.212 C 
ATOM     22  C   UNL     1      -4.972   2.049   1.581  1.00  0.00     0.069 C 
ATOM     23  O   UNL     1      -5.012  -0.082   2.726  1.00  0.00    -0.370 OA
BRANCH  16  24
ATOM     24  O   UNL     1      -2.076  -0.353   1.716  1.00  0.00    -0.454 OA
BRANCH  24  25
ATOM     25  C   UNL     1      -1.597  -0.635   3.007  1.00  0.00     0.303 C 
ATOM     26  C   UNL     1      -0.144  -0.908   3.188  1.00  0.00     0.139 C 
ATOM     27  O   UNL     1      -2.367  -0.702   4.003  1.00  0.00    -0.253 OA
ENDBRANCH  24  25
ENDBRANCH  16  24
BRANCH  18  28
ATOM     28  O   UNL     1      -5.572   3.294  -0.383  1.00  0.00    -0.380 OA
ATOM     29  C   UNL     1      -5.078   4.613  -0.290  1.00  0.00     0.195 C 
ENDBRANCH  18  28
ENDBRANCH  13  14
BRANCH  13  30
ATOM     30  O   UNL     1      -3.048  -2.323  -0.148  1.00  0.00    -0.455 OA
BRANCH  30  31
ATOM     31  C   UNL     1      -3.658  -3.585  -0.204  1.00  0.00     0.338 C 
ATOM     32  O   UNL     1      -4.479  -3.859  -1.122  1.00  0.00    -0.246 OA
BRANCH  31  33
ATOM     33  C   UNL     1      -3.335  -4.587   0.834  1.00  0.00     0.060 A 
ATOM     34  C   UNL     1      -2.367  -4.300   1.815  1.00  0.00     0.015 A 
ATOM     35  C   UNL     1      -3.992  -5.830   0.867  1.00  0.00     0.015 A 
ATOM     36  C   UNL     1      -2.068  -5.235   2.810  1.00  0.00     0.001 A 
ATOM     37  C   UNL     1      -3.686  -6.763   1.863  1.00  0.00     0.001 A 
ATOM     38  C   UNL     1      -2.729  -6.465   2.835  1.00  0.00     0.000 A 
ENDBRANCH  31  33
ENDBRANCH  30  31
ENDBRANCH  13  30
ENDBRANCH   5  13
BRANCH   5  39
ATOM     39  O   UNL     1      -2.074  -2.606  -2.713  1.00  0.00    -0.385 OA
ATOM     40  H   UNL     1      -1.736  -3.263  -2.051  1.00  0.00     0.211 HD
ENDBRANCH   5  39
BRANCH   8  41
ATOM     41  C   UNL     1      -3.144   2.137  -2.777  1.00  0.00     0.212 C 
BRANCH  41  42
ATOM     42  O   UNL     1      -3.304   2.582  -4.116  1.00  0.00    -0.369 OA
ATOM     43  C   UNL     1      -3.618   3.958  -4.160  1.00  0.00     0.196 C 
ENDBRANCH  41  42
BRANCH  41  44
ATOM     44  C   UNL     1      -4.448   1.566  -2.233  1.00  0.00     0.174 CG0
ATOM     45  O   UNL     1      -5.428   1.634  -2.965  1.00  0.00    -0.296 OA
ATOM     46  G   UNL     1      -4.641   1.074  -0.773  1.00  0.00     0.000 G0
ENDBRANCH  41  44
ENDBRANCH   8  41
ENDBRANCH   3   4
ENDBRANCH   1   3
BRANCH   1  47
ATOM     47  C   UNL     1       2.872   0.421   0.953  1.00  0.00     0.251 C 
BRANCH  47  48
ATOM     48  O   UNL     1       2.369   1.674   1.349  1.00  0.00    -0.379 OA
ATOM     49  H   UNL     1       2.406   1.712   2.340  1.00  0.00     0.211 HD
ENDBRANCH  47  48
BRANCH  47  50
ATOM     50  C   UNL     1       4.349   0.581   0.500  1.00  0.00     0.156 C 
BRANCH  50  51
ATOM     51  N   UNL     1       5.152   1.212   1.555  1.00  0.00    -0.311 N 
ATOM     52  C   UNL     1       6.501   1.636   1.327  1.00  0.00     0.408 C 
ATOM     53  H   UNL     1       4.800   1.224   2.540  1.00  0.00     0.167 HD
ATOM     54  O   UNL     1       6.948   1.713   0.150  1.00  0.00    -0.225 OA
BRANCH  52  55
ATOM     55  O   UNL     1       7.314   1.939   2.430  1.00  0.00    -0.444 OA
BRANCH  55  56
ATOM     56  C   UNL     1       8.718   2.238   2.392  1.00  0.00     0.106 C 
ATOM     57  C   UNL     1       9.506   1.063   1.780  1.00  0.00     0.056 C 
ATOM     58  C   UNL     1       8.975   3.534   1.601  1.00  0.00     0.056 C 
ATOM     59  C   UNL     1       9.180   2.440   3.843  1.00  0.00     0.056 C 
ENDBRANCH  55  56
ENDBRANCH  52  55
ENDBRANCH  50  51
BRANCH  50  60
ATOM     60  C   UNL     1       4.975  -0.753   0.139  1.00  0.00    -0.022 A 
ATOM     61  C   UNL     1       5.364  -1.020  -1.186  1.00  0.00     0.006 A 
ATOM     62  C   UNL     1       5.192  -1.731   1.126  1.00  0.00     0.006 A 
ATOM     63  C   UNL     1       5.952  -2.245  -1.515  1.00  0.00     0.000 A 
ATOM     64  C   UNL     1       5.779  -2.955   0.792  1.00  0.00     0.000 A 
ATOM     65  C   UNL     1       6.159  -3.212  -0.527  1.00  0.00     0.000 A 
ENDBRANCH  50  60
ENDBRANCH  47  50
ENDBRANCH   1  47
TORSDOF 17
