REMARK SMILES COc1ccccc1Oc1c(NS(=O)(=O)c2ccc(C(C)C)cn2)nc(-c2ccnc(-c3nn[nH]n3)c2)nc1OCCO
REMARK SMILES IDX 10 1 11 2 25 3 26 4 38 5 39 6 9 7 8 8 3 9 4 10 5 11 7 12
REMARK SMILES IDX 6 13 2 14 1 15 12 16 13 18 14 19 15 20 16 21 24 22 17 23
REMARK SMILES IDX 23 24 18 25 19 26 20 27 21 28 22 29 40 30 41 31 42 32 43 33
REMARK SMILES IDX 27 35 37 36 28 37 31 38 29 39 30 40 32 41 36 42 33 43 35 44
REMARK SMILES IDX 34 45
REMARK H PARENT 12 17 43 34 35 46
REMARK Flexibility Score: inf
ROOT
ATOM      1  C   UNL     1      -0.494   0.413   1.026  1.00  0.00     0.232 A 
ATOM      2  C   UNL     1      -0.060   1.370   1.966  1.00  0.00     0.191 A 
ATOM      3  N   UNL     1      -0.829   2.468   2.194  1.00  0.00    -0.206 NA
ATOM      4  C   UNL     1      -2.024   2.654   1.574  1.00  0.00     0.165 A 
ATOM      5  N   UNL     1      -2.472   1.716   0.700  1.00  0.00    -0.190 NA
ATOM      6  C   UNL     1      -1.746   0.603   0.417  1.00  0.00     0.263 A 
ENDROOT
BRANCH   1   7
ATOM      7  O   UNL     1       0.295  -0.704   0.721  1.00  0.00    -0.444 OA
BRANCH   7   8
ATOM      8  C   UNL     1       0.524  -1.203  -0.570  1.00  0.00     0.169 A 
ATOM      9  C   UNL     1       0.828  -2.565  -0.723  1.00  0.00     0.161 A 
ATOM     10  C   UNL     1       1.066  -3.081  -2.012  1.00  0.00     0.050 A 
ATOM     11  C   UNL     1       1.013  -2.243  -3.128  1.00  0.00     0.004 A 
ATOM     12  C   UNL     1       0.492  -0.364  -1.699  1.00  0.00     0.051 A 
ATOM     13  C   UNL     1       0.730  -0.886  -2.971  1.00  0.00     0.004 A 
BRANCH   9  14
ATOM     14  O   UNL     1       0.876  -3.371   0.424  1.00  0.00    -0.493 OA
ATOM     15  C   UNL     1       1.216  -4.753   0.424  1.00  0.00     0.278 C 
ENDBRANCH   9  14
ENDBRANCH   7   8
ENDBRANCH   1   7
BRANCH   2  16
ATOM     16  N   UNL     1       1.205   1.274   2.644  1.00  0.00    -0.259 N 
ATOM     17  H   UNL     1       1.604   2.148   3.051  1.00  0.00     0.182 HD
BRANCH  16  18
ATOM     18  S   UNL     1       1.938  -0.216   3.154  1.00  0.00     0.280 S 
ATOM     19  O   UNL     1       0.865  -1.223   3.461  1.00  0.00    -0.200 OA
ATOM     20  O   UNL     1       2.742   0.035   4.398  1.00  0.00    -0.200 OA
BRANCH  18  21
ATOM     21  C   UNL     1       3.000  -0.816   1.893  1.00  0.00     0.175 A 
ATOM     22  N   UNL     1       3.397   0.017   0.894  1.00  0.00    -0.243 NA
ATOM     23  C   UNL     1       3.418  -2.150   1.892  1.00  0.00     0.043 A 
ATOM     24  C   UNL     1       4.193  -0.407  -0.123  1.00  0.00     0.116 A 
ATOM     25  C   UNL     1       4.232  -2.612   0.858  1.00  0.00     0.008 A 
ATOM     26  C   UNL     1       4.636  -1.740  -0.169  1.00  0.00    -0.027 A 
BRANCH  26  27
ATOM     27  C   UNL     1       5.521  -2.213  -1.305  1.00  0.00     0.014 C 
ATOM     28  C   UNL     1       6.857  -2.756  -0.782  1.00  0.00     0.012 C 
ATOM     29  C   UNL     1       4.799  -3.257  -2.164  1.00  0.00     0.012 C 
ENDBRANCH  26  27
ENDBRANCH  18  21
ENDBRANCH  16  18
ENDBRANCH   2  16
BRANCH   6  30
ATOM     30  O   UNL     1      -2.245  -0.359  -0.467  1.00  0.00    -0.472 OA
BRANCH  30  31
ATOM     31  C   UNL     1      -3.460  -0.194  -1.187  1.00  0.00     0.259 C 
BRANCH  31  32
ATOM     32  C   UNL     1      -3.677  -1.403  -2.091  1.00  0.00     0.197 C 
BRANCH  32  33
ATOM     33  O   UNL     1      -4.828  -1.230  -2.870  1.00  0.00    -0.393 OA
ATOM     34  H   UNL     1      -5.603  -1.387  -2.269  1.00  0.00     0.210 HD
ENDBRANCH  32  33
ENDBRANCH  31  32
ENDBRANCH  30  31
ENDBRANCH   6  30
BRANCH   4  35
ATOM     35  C   UNL     1      -2.837   3.864   1.855  1.00  0.00     0.023 A 
ATOM     36  C   UNL     1      -4.060   4.075   1.192  1.00  0.00     0.044 A 
ATOM     37  C   UNL     1      -2.402   4.820   2.788  1.00  0.00     0.032 A 
ATOM     38  C   UNL     1      -4.817   5.223   1.471  1.00  0.00     0.112 A 
ATOM     39  C   UNL     1      -3.185   5.948   3.039  1.00  0.00     0.112 A 
ATOM     40  N   UNL     1      -4.361   6.123   2.383  1.00  0.00    -0.253 NA
BRANCH  38  41
ATOM     41  C   UNL     1      -6.102   5.468   0.795  1.00  0.00     0.222 A 
ATOM     42  N   UNL     1      -6.876   6.547   1.015  1.00  0.00    -0.132 NA
ATOM     43  N   UNL     1      -6.659   4.644  -0.117  1.00  0.00    -0.107 NA
ATOM     44  N   UNL     1      -7.914   6.363   0.218  1.00  0.00    -0.177 N 
ATOM     45  N   UNL     1      -7.793   5.233  -0.458  1.00  0.00    -0.050 NA
ATOM     46  H   UNL     1      -8.721   7.020   0.135  1.00  0.00     0.216 HD
ENDBRANCH  38  41
ENDBRANCH   4  35
TORSDOF 13
