REMARK SMILES C#CCC(Cc1cnc2nc(N)nc(N)c2n1)c1ccc(C(=O)N[C@@H](CCC(=O)O)C(=O)O)cc1
REMARK SMILES IDX 22 1 23 2 24 3 21 5 18 6 19 7 35 8 20 9 34 10 4 11 5 12 6 13
REMARK SMILES IDX 11 14 10 15 13 16 9 17 14 18 8 19 16 20 7 21 17 22 12 23
REMARK SMILES IDX 15 26 3 29 2 30 1 31 25 32 26 33 27 34 28 35 29 36 30 37
REMARK SMILES IDX 31 39 32 40 33 41
REMARK H PARENT 24 4 12 24 12 25 15 27 15 28 30 38 33 42
REMARK Flexibility Score: inf
ROOT
ATOM      1  C   UNL     1      -3.882  -1.148   0.567  1.00  0.00     0.251 C 
ATOM      2  O   UNL     1      -4.133  -2.041   1.424  1.00  0.00    -0.269 OA
ATOM      3  N   UNL     1      -4.962  -0.419  -0.046  1.00  0.00    -0.339 N 
ATOM      4  H   UNL     1      -4.743   0.426  -0.624  1.00  0.00     0.164 HD
ENDROOT
BRANCH   1   5
ATOM      5  C   UNL     1      -2.472  -0.847   0.224  1.00  0.00     0.039 A 
ATOM      6  C   UNL     1       0.223  -0.276  -0.408  1.00  0.00    -0.044 A 
ATOM      7  C   UNL     1      -0.796  -0.053  -1.349  1.00  0.00     0.005 A 
ATOM      8  C   UNL     1      -0.121  -0.815   0.845  1.00  0.00     0.005 A 
ATOM      9  C   UNL     1      -2.128  -0.333  -1.035  1.00  0.00     0.014 A 
ATOM     10  C   UNL     1      -1.452  -1.102   1.154  1.00  0.00     0.014 A 
BRANCH   6  11
ATOM     11  C   UNL     1       1.671   0.013  -0.782  1.00  0.00     0.037 C 
BRANCH  11  12
ATOM     12  C   UNL     1       2.376   0.879   0.290  1.00  0.00     0.067 C 
BRANCH  12  13
ATOM     13  C   UNL     1       3.720   1.360  -0.177  1.00  0.00     0.060 A 
ATOM     14  C   UNL     1       8.530   1.927  -1.156  1.00  0.00     0.224 A 
ATOM     15  N   UNL     1       7.402   2.577  -1.550  1.00  0.00    -0.191 NA
ATOM     16  N   UNL     1       8.444   0.866  -0.306  1.00  0.00    -0.194 NA
ATOM     17  C   UNL     1       6.183   2.184  -1.102  1.00  0.00     0.185 A 
ATOM     18  C   UNL     1       7.246   0.431   0.170  1.00  0.00     0.157 A 
ATOM     19  N   UNL     1       5.060   2.841  -1.493  1.00  0.00    -0.233 NA
ATOM     20  C   UNL     1       6.075   1.091  -0.224  1.00  0.00     0.150 A 
ATOM     21  C   UNL     1       3.833   2.455  -1.052  1.00  0.00     0.137 A 
ATOM     22  N   UNL     1       4.846   0.704   0.215  1.00  0.00    -0.244 NA
BRANCH  14  23
ATOM     23  N   UNL     1       9.803   2.353  -1.634  1.00  0.00    -0.368 N 
ATOM     24  H   UNL     1      10.671   1.854  -1.340  1.00  0.00     0.159 HD
ATOM     25  H   UNL     1       9.879   3.157  -2.296  1.00  0.00     0.159 HD
ENDBRANCH  14  23
BRANCH  18  26
ATOM     26  N   UNL     1       7.204  -0.691   1.053  1.00  0.00    -0.382 N 
ATOM     27  H   UNL     1       6.304  -1.045   1.448  1.00  0.00     0.158 HD
ATOM     28  H   UNL     1       8.086  -1.175   1.322  1.00  0.00     0.158 HD
ENDBRANCH  18  26
ENDBRANCH  12  13
ENDBRANCH  11  12
BRANCH  11  29
ATOM     29  C   UNL     1       2.433  -1.288  -1.135  1.00  0.00     0.098 C 
BRANCH  29  30
ATOM     30  C   UNL     1       2.721  -2.131   0.034  1.00  0.00    -0.106 C 
ATOM     31  C   UNL     1       2.967  -2.817   0.994  1.00  0.00     0.004 C 
ENDBRANCH  29  30
ENDBRANCH  11  29
ENDBRANCH   6  11
ENDBRANCH   1   5
BRANCH   3  32
ATOM     32  C   UNL     1      -6.346  -0.905  -0.036  1.00  0.00     0.192 C 
BRANCH  32  33
ATOM     33  C   UNL     1      -7.336   0.275   0.025  1.00  0.00     0.049 C 
BRANCH  33  34
ATOM     34  C   UNL     1      -7.153   1.154   1.270  1.00  0.00     0.125 C 
BRANCH  34  35
ATOM     35  C   UNL     1      -7.402   0.392   2.535  1.00  0.00     0.303 C 
ATOM     36  O   UNL     1      -8.581   0.091   2.869  1.00  0.00    -0.252 OA
BRANCH  35  37
ATOM     37  O   UNL     1      -6.330  -0.010   3.324  1.00  0.00    -0.481 OA
ATOM     38  H   UNL     1      -6.479  -0.552   4.167  1.00  0.00     0.296 HD
ENDBRANCH  35  37
ENDBRANCH  34  35
ENDBRANCH  33  34
ENDBRANCH  32  33
BRANCH  32  39
ATOM     39  C   UNL     1      -6.613  -1.731  -1.262  1.00  0.00     0.326 C 
ATOM     40  O   UNL     1      -5.934  -1.564  -2.312  1.00  0.00    -0.250 OA
BRANCH  39  41
ATOM     41  O   UNL     1      -7.646  -2.666  -1.247  1.00  0.00    -0.480 OA
ATOM     42  H   UNL     1      -7.851  -3.224  -2.065  1.00  0.00     0.296 HD
ENDBRANCH  39  41
ENDBRANCH  32  39
ENDBRANCH   3  32
TORSDOF 15
