REMARK SMILES CC(C)C1NC(=O)C(CCCCN)NC(=O)C(Cc2c[nH]c3ccccc23)NC(=O)C(Cc2ccc(O)cc2)NC(=O)C(NC(=O)C(N)Cc2ccc3ccccc3c2)CSSCC(C(=O)NC(C(N)=O)C(C)O)NC1=O
REMARK SMILES IDX 14 1 15 2 16 3 8 5 9 6 10 7 11 8 12 9 13 10 6 13 5 14 7 15
REMARK SMILES IDX 4 17 76 18 75 19 77 20 64 22 63 23 62 24 61 25 60 26 65 28
REMARK SMILES IDX 66 29 67 30 68 32 72 33 73 34 74 35 69 37 71 38 70 39 2 42
REMARK SMILES IDX 1 43 3 44 17 45 18 46 19 47 20 48 27 49 21 50 22 51 26 52
REMARK SMILES IDX 23 54 25 55 24 56 28 57 29 58 30 60 31 61 32 62 33 63 34 64
REMARK SMILES IDX 39 65 35 66 38 67 36 68 37 69 40 71 41 72 42 74 43 75 44 77
REMARK SMILES IDX 45 78 46 80 47 81 49 82 50 83 59 84 51 85 58 86 52 87 57 88
REMARK SMILES IDX 53 89 56 90 54 91 55 92 48 93
REMARK H PARENT 14 4 13 11 13 12 5 16 75 21 67 31 74 36 70 40 70 41 21 53
REMARK H PARENT 28 59 37 70 40 73 44 79 48 94 48 95
REMARK Flexibility Score: 60.00
ROOT
ATOM      1  N   UNL     1      -3.925  -1.511  -1.442  1.00  0.00    -0.343 N 
ATOM      2  C   UNL     1      -2.503  -1.498  -1.679  1.00  0.00     0.243 C 
ATOM      3  O   UNL     1      -2.095  -1.102  -2.805  1.00  0.00    -0.273 OA
ATOM      4  H   UNL     1      -4.522  -1.218  -2.251  1.00  0.00     0.164 HD
ENDROOT
BRANCH   1   5
ATOM      5  C   UNL     1      -4.592  -1.710  -0.150  1.00  0.00     0.171 C 
BRANCH   5   6
ATOM      6  C   UNL     1      -6.023  -2.255  -0.398  1.00  0.00     0.035 C 
BRANCH   6   7
ATOM      7  C   UNL     1      -6.842  -2.547   0.873  1.00  0.00     0.004 C 
BRANCH   7   8
ATOM      8  C   UNL     1      -6.260  -3.670   1.755  1.00  0.00     0.015 C 
BRANCH   8   9
ATOM      9  C   UNL     1      -5.619  -3.113   3.029  1.00  0.00     0.077 C 
BRANCH   9  10
ATOM     10  N   UNL     1      -5.053  -4.199   3.822  1.00  0.00    -0.330 NA
ATOM     11  H   UNL     1      -4.091  -4.381   3.462  1.00  0.00     0.118 HD
ATOM     12  H   UNL     1      -4.921  -3.838   4.796  1.00  0.00     0.118 HD
ENDBRANCH   9  10
ENDBRANCH   8   9
ENDBRANCH   7   8
ENDBRANCH   6   7
ENDBRANCH   5   6
BRANCH   5  13
ATOM     13  C   UNL     1      -4.598  -0.402   0.590  1.00  0.00     0.243 C 
ATOM     14  N   UNL     1      -5.526   0.640   0.240  1.00  0.00    -0.342 N 
ATOM     15  O   UNL     1      -3.714  -0.179   1.463  1.00  0.00    -0.273 OA
ATOM     16  H   UNL     1      -6.492   0.543   0.644  1.00  0.00     0.164 HD
BRANCH  14  17
ATOM     17  C   UNL     1      -5.047   1.992  -0.075  1.00  0.00     0.174 C 
BRANCH  17  18
ATOM     18  C   UNL     1      -3.951   1.918  -1.121  1.00  0.00     0.243 C 
ATOM     19  N   UNL     1      -2.585   2.277  -0.836  1.00  0.00    -0.342 N 
ATOM     20  O   UNL     1      -4.230   1.482  -2.270  1.00  0.00    -0.273 OA
ATOM     21  H   UNL     1      -1.871   1.939  -1.516  1.00  0.00     0.164 HD
BRANCH  19  22
ATOM     22  C   UNL     1      -2.159   3.097   0.308  1.00  0.00     0.182 C 
BRANCH  22  23
ATOM     23  C   UNL     1      -0.626   3.178   0.400  1.00  0.00     0.116 C 
BRANCH  23  24
ATOM     24  S   UNL     1       0.136   3.852  -1.120  1.00  0.00    -0.091 SA
BRANCH  24  25
ATOM     25  S   UNL     1       2.120   3.821  -0.318  1.00  0.00    -0.091 SA
BRANCH  25  26
ATOM     26  C   UNL     1       2.428   2.085  -0.791  1.00  0.00     0.116 CG0
ATOM     27  G   UNL     1       3.915   1.730  -0.638  1.00  0.00     0.000 G0
ENDBRANCH  25  26
ENDBRANCH  24  25
ENDBRANCH  23  24
ENDBRANCH  22  23
BRANCH  22  28
ATOM     28  C   UNL     1      -2.764   4.479   0.266  1.00  0.00     0.244 C 
ATOM     29  O   UNL     1      -2.971   5.082   1.354  1.00  0.00    -0.273 OA
ATOM     30  N   UNL     1      -3.039   5.135  -0.985  1.00  0.00    -0.340 N 
ATOM     31  H   UNL     1      -2.984   4.581  -1.869  1.00  0.00     0.164 HD
BRANCH  30  32
ATOM     32  C   UNL     1      -3.109   6.596  -1.101  1.00  0.00     0.199 C 
BRANCH  32  33
ATOM     33  C   UNL     1      -4.265   7.002  -2.039  1.00  0.00     0.143 C 
ATOM     34  C   UNL     1      -4.411   8.530  -2.113  1.00  0.00     0.041 C 
BRANCH  33  35
ATOM     35  O   UNL     1      -5.461   6.441  -1.562  1.00  0.00    -0.391 OA
ATOM     36  H   UNL     1      -6.128   6.532  -2.286  1.00  0.00     0.211 HD
ENDBRANCH  33  35
ENDBRANCH  32  33
BRANCH  32  37
ATOM     37  C   UNL     1      -1.775   7.098  -1.595  1.00  0.00     0.242 C 
ATOM     38  O   UNL     1      -1.376   6.789  -2.748  1.00  0.00    -0.273 OA
ATOM     39  N   UNL     1      -0.942   7.892  -0.753  1.00  0.00    -0.368 N 
ATOM     40  H   UNL     1      -0.017   8.231  -1.095  1.00  0.00     0.159 HD
ATOM     41  H   UNL     1      -1.254   8.171   0.204  1.00  0.00     0.159 HD
ENDBRANCH  32  37
ENDBRANCH  30  32
ENDBRANCH  22  28
ENDBRANCH  19  22
ENDBRANCH  17  18
BRANCH  17  42
ATOM     42  C   UNL     1      -6.198   2.942  -0.525  1.00  0.00     0.015 C 
ATOM     43  C   UNL     1      -7.189   2.301  -1.516  1.00  0.00     0.010 C 
ATOM     44  C   UNL     1      -6.952   3.509   0.685  1.00  0.00     0.010 C 
ENDBRANCH  17  42
ENDBRANCH  14  17
ENDBRANCH   5  13
ENDBRANCH   1   5
BRANCH   2  45
ATOM     45  C   UNL     1      -1.477  -2.069  -0.707  1.00  0.00     0.175 C 
BRANCH  45  46
ATOM     46  C   UNL     1      -1.157  -3.526  -1.111  1.00  0.00     0.072 C 
BRANCH  46  47
ATOM     47  C   UNL     1      -2.368  -4.411  -1.155  1.00  0.00    -0.020 A 
ATOM     48  C   UNL     1      -3.223  -4.590  -2.239  1.00  0.00     0.087 A 
ATOM     49  C   UNL     1      -2.847  -5.242  -0.160  1.00  0.00     0.003 A 
ATOM     50  N   UNL     1      -4.190  -5.486  -1.937  1.00  0.00    -0.361 N 
ATOM     51  C   UNL     1      -3.948  -5.880  -0.674  1.00  0.00     0.046 A 
ATOM     52  C   UNL     1      -2.383  -5.505   1.131  1.00  0.00     0.010 A 
ATOM     53  H   UNL     1      -4.953  -5.819  -2.567  1.00  0.00     0.166 HD
ATOM     54  C   UNL     1      -4.656  -6.830   0.061  1.00  0.00     0.026 A 
ATOM     55  C   UNL     1      -3.075  -6.466   1.895  1.00  0.00     0.001 A 
ATOM     56  C   UNL     1      -4.211  -7.119   1.365  1.00  0.00     0.002 A 
ENDBRANCH  46  47
ENDBRANCH  45  46
BRANCH  45  57
ATOM     57  N   UNL     1      -0.262  -1.235  -0.763  1.00  0.00    -0.342 N 
ATOM     58  C   UNL     1       1.065  -1.693  -0.436  1.00  0.00     0.243 C 
ATOM     59  H   UNL     1      -0.350  -0.240  -1.072  1.00  0.00     0.164 HD
ATOM     60  O   UNL     1       1.250  -2.446   0.560  1.00  0.00    -0.273 OA
BRANCH  58  61
ATOM     61  C   UNL     1       2.232  -1.273  -1.298  1.00  0.00     0.175 C 
BRANCH  61  62
ATOM     62  C   UNL     1       2.709  -2.414  -2.228  1.00  0.00     0.070 C 
BRANCH  62  63
ATOM     63  C   UNL     1       3.420  -3.546  -1.516  1.00  0.00    -0.045 A 
ATOM     64  C   UNL     1       4.808  -3.491  -1.301  1.00  0.00     0.007 A 
ATOM     65  C   UNL     1       2.710  -4.685  -1.101  1.00  0.00     0.007 A 
ATOM     66  C   UNL     1       5.473  -4.552  -0.678  1.00  0.00     0.046 A 
ATOM     67  C   UNL     1       3.377  -5.747  -0.481  1.00  0.00     0.046 A 
ATOM     68  C   UNL     1       4.759  -5.687  -0.272  1.00  0.00     0.115 A 
BRANCH  68  69
ATOM     69  O   UNL     1       5.414  -6.758   0.330  1.00  0.00    -0.508 OA
ATOM     70  H   UNL     1       6.416  -6.750   0.479  1.00  0.00     0.293 HD
ENDBRANCH  68  69
ENDBRANCH  62  63
ENDBRANCH  61  62
BRANCH  61  71
ATOM     71  N   UNL     1       3.328  -0.754  -0.474  1.00  0.00    -0.342 N 
ATOM     72  C   UNL     1       4.184   0.286  -0.966  1.00  0.00     0.244 C 
ATOM     73  H   UNL     1       3.712  -1.354   0.295  1.00  0.00     0.164 HD
ATOM     74  O   UNL     1       5.251  -0.021  -1.555  1.00  0.00    -0.273 OA
BRANCH  72  75
ATOM     75  C   UNL     1       3.915   1.730  -0.638  1.00  0.00     0.182 CG0
ATOM     76  G   UNL     1       2.428   2.085  -0.791  1.00  0.00     0.000 G0
BRANCH  75  77
ATOM     77  N   UNL     1       4.379   2.004   0.724  1.00  0.00    -0.342 N 
ATOM     78  C   UNL     1       5.745   2.335   1.009  1.00  0.00     0.237 C 
ATOM     79  H   UNL     1       3.741   1.793   1.528  1.00  0.00     0.164 HD
ATOM     80  O   UNL     1       6.570   2.461   0.062  1.00  0.00    -0.273 OA
BRANCH  78  81
ATOM     81  C   UNL     1       6.210   2.469   2.440  1.00  0.00     0.145 C 
BRANCH  81  82
ATOM     82  C   UNL     1       6.755   1.133   2.993  1.00  0.00     0.064 C 
BRANCH  82  83
ATOM     83  C   UNL     1       7.930   0.584   2.214  1.00  0.00    -0.045 A 
ATOM     84  C   UNL     1       9.233   1.018   2.503  1.00  0.00     0.012 A 
ATOM     85  C   UNL     1       7.724  -0.351   1.186  1.00  0.00     0.004 A 
ATOM     86  C   UNL     1      10.321   0.538   1.761  1.00  0.00    -0.018 A 
ATOM     87  C   UNL     1       8.802  -0.850   0.452  1.00  0.00     0.009 A 
ATOM     88  C   UNL     1      11.625   0.988   2.026  1.00  0.00     0.009 A 
ATOM     89  C   UNL     1      10.105  -0.410   0.728  1.00  0.00    -0.018 A 
ATOM     90  C   UNL     1      12.700   0.496   1.282  1.00  0.00     0.001 A 
ATOM     91  C   UNL     1      11.196  -0.894  -0.010  1.00  0.00     0.009 A 
ATOM     92  C   UNL     1      12.489  -0.442   0.267  1.00  0.00     0.001 A 
ENDBRANCH  82  83
ENDBRANCH  81  82
BRANCH  81  93
ATOM     93  N   UNL     1       7.192   3.549   2.595  1.00  0.00    -0.320 NA
ATOM     94  H   UNL     1       6.729   4.455   2.355  1.00  0.00     0.119 HD
ATOM     95  H   UNL     1       7.982   3.421   1.922  1.00  0.00     0.119 HD
ENDBRANCH  81  93
ENDBRANCH  78  81
ENDBRANCH  75  77
ENDBRANCH  72  75
ENDBRANCH  61  71
ENDBRANCH  58  61
ENDBRANCH  45  57
ENDBRANCH   2  45
TORSDOF 21
