REMARK SMILES Nc1ccccc1
REMARK SMILES IDX 2 1 3 2 4 3 5 4 6 5 7 6 1 7
REMARK H PARENT 1 8 1 9
REMARK Flexibility Score: inf
ROOT
ATOM      1  C   UNL     1       0.894   0.095  -0.047  1.00  0.00     0.031 A 
ATOM      2  C   UNL     1       0.089   1.174   0.349  1.00  0.00     0.025 A 
ATOM      3  C   UNL     1      -1.300   1.025   0.421  1.00  0.00     0.002 A 
ATOM      4  C   UNL     1      -1.891  -0.200   0.099  1.00  0.00     0.000 A 
ATOM      5  C   UNL     1      -1.094  -1.279  -0.296  1.00  0.00     0.002 A 
ATOM      6  C   UNL     1       0.295  -1.133  -0.369  1.00  0.00     0.025 A 
ENDROOT
BRANCH   1   7
ATOM      7  N   UNL     1       2.314   0.245  -0.121  1.00  0.00    -0.399 N 
ATOM      8  H   UNL     1       2.768   1.155   0.117  1.00  0.00     0.156 HD
ATOM      9  H   UNL     1       2.921  -0.552  -0.415  1.00  0.00     0.156 HD
ENDBRANCH   1   7
TORSDOF 1
