REMARK SMILES CCCCCC(=O)O[C@]1(C(C)=O)CC[C@H]2[C@@H]3CCC4=CC(=O)CC[C@]4(C)[C@H]3CC[C@@]21C
REMARK SMILES IDX 5 1 6 2 7 3 8 4 9 5 15 6 14 7 30 8 16 9 13 10 31 11 29 12
REMARK SMILES IDX 27 13 17 14 28 15 25 16 18 17 19 18 24 19 26 20 20 21 23 22
REMARK SMILES IDX 21 23 22 24 10 25 11 26 12 27 4 28 3 29 2 30 1 31
REMARK H PARENT
REMARK Flexibility Score: inf
ROOT
ATOM      1  C   UNL     1       4.050  -1.002   1.597  1.00  0.00     0.123 C 
ENDROOT
BRANCH   1   2
ATOM      2  C   UNL     1       2.755  -0.253   1.492  1.00  0.00     0.306 C 
ATOM      3  O   UNL     1       2.442   0.571   2.390  1.00  0.00    -0.252 OA
BRANCH   2   4
ATOM      4  O   UNL     1       1.826  -0.577   0.497  1.00  0.00    -0.450 OA
BRANCH   4   5
ATOM      5  C   UNL     1       1.525   0.211  -0.672  1.00  0.00     0.175 C 
ATOM      6  C   UNL     1      -0.678   0.785   0.029  1.00  0.00     0.003 C 
ATOM      7  C   UNL     1       0.081   2.108   0.070  1.00  0.00     0.009 C 
ATOM      8  C   UNL     1       0.034  -0.041  -1.068  1.00  0.00     0.018 C 
ATOM      9  C   UNL     1      -2.215   0.792  -0.138  1.00  0.00    -0.003 C 
ATOM     10  C   UNL     1       1.516   1.745  -0.353  1.00  0.00     0.058 C 
ATOM     11  C   UNL     1      -0.236   0.487  -2.520  1.00  0.00     0.016 C 
ATOM     12  C   UNL     1      -0.464  -1.510  -0.972  1.00  0.00     0.012 C 
ATOM     13  C   UNL     1      -2.704  -0.688  -0.001  1.00  0.00     0.002 C 
ATOM     14  C   UNL     1      -2.944   1.759   0.841  1.00  0.00     0.008 C 
ATOM     15  C   UNL     1      -2.010  -1.609  -1.044  1.00  0.00     0.005 C 
ATOM     16  C   UNL     1      -4.270  -0.784   0.061  1.00  0.00    -0.008 C 
ATOM     17  C   UNL     1      -3.820   1.067   1.891  1.00  0.00     0.032 C 
ATOM     18  C   UNL     1      -4.730   0.018   1.284  1.00  0.00    -0.060 C 
ATOM     19  C   UNL     1      -4.715  -2.270   0.227  1.00  0.00     0.019 C 
ATOM     20  C   UNL     1      -4.929  -0.188  -1.209  1.00  0.00     0.016 C 
ATOM     21  C   UNL     1      -5.869  -0.287   1.928  1.00  0.00     0.047 C 
ATOM     22  C   UNL     1      -6.218  -2.421   0.512  1.00  0.00     0.081 C 
ATOM     23  C   UNL     1      -6.687  -1.450   1.553  1.00  0.00     0.155 C 
ATOM     24  O   UNL     1      -7.803  -1.628   2.109  1.00  0.00    -0.295 OA
BRANCH   5  25
ATOM     25  C   UNL     1       2.516  -0.173  -1.770  1.00  0.00     0.173 C 
ATOM     26  C   UNL     1       2.792  -1.612  -2.098  1.00  0.00     0.092 C 
ATOM     27  O   UNL     1       3.090   0.688  -2.422  1.00  0.00    -0.295 OA
ENDBRANCH   5  25
ENDBRANCH   4   5
ENDBRANCH   2   4
ENDBRANCH   1   2
BRANCH   1  28
ATOM     28  C   UNL     1       5.157  -0.407   0.716  1.00  0.00     0.012 C 
BRANCH  28  29
ATOM     29  C   UNL     1       5.519   1.037   1.104  1.00  0.00     0.000 C 
BRANCH  29  30
ATOM     30  C   UNL     1       6.633   1.613   0.213  1.00  0.00    -0.003 C 
ATOM     31  C   UNL     1       8.015   1.072   0.575  1.00  0.00     0.004 C 
ENDBRANCH  29  30
ENDBRANCH  28  29
ENDBRANCH   1  28
TORSDOF 7
