REMARK SMILES COC[C@@H](NC(C)=O)C(=O)NCc1ccccc1
REMARK SMILES IDX 9 1 10 2 11 3 4 5 3 6 2 7 1 8 5 9 6 10 7 12 8 13 12 14 13 15
REMARK SMILES IDX 14 16 18 17 15 18 17 19 16 20
REMARK H PARENT 11 4 5 11
REMARK Flexibility Score: inf
ROOT
ATOM      1  C   UNL     1      -0.074   1.284   0.003  1.00  0.00     0.245 C 
ATOM      2  O   UNL     1       0.143   1.425  -1.231  1.00  0.00    -0.273 OA
ATOM      3  N   UNL     1       0.992   1.459   0.947  1.00  0.00    -0.350 N 
ATOM      4  H   UNL     1       0.773   1.480   1.969  1.00  0.00     0.163 HD
ENDROOT
BRANCH   1   5
ATOM      5  C   UNL     1      -1.447   0.886   0.476  1.00  0.00     0.197 C 
BRANCH   5   6
ATOM      6  C   UNL     1      -2.481   1.945   0.069  1.00  0.00     0.194 C 
BRANCH   6   7
ATOM      7  O   UNL     1      -3.745   1.586   0.588  1.00  0.00    -0.382 OA
ATOM      8  C   UNL     1      -4.696   2.559   0.217  1.00  0.00     0.195 C 
ENDBRANCH   6   7
ENDBRANCH   5   6
BRANCH   5   9
ATOM      9  N   UNL     1      -1.794  -0.425  -0.082  1.00  0.00    -0.343 N 
ATOM     10  C   UNL     1      -1.144  -1.630   0.348  1.00  0.00     0.217 C 
ATOM     11  H   UNL     1      -2.512  -0.493  -0.839  1.00  0.00     0.164 HD
ATOM     12  C   UNL     1      -1.459  -2.927  -0.323  1.00  0.00     0.114 C 
ATOM     13  O   UNL     1      -0.291  -1.600   1.276  1.00  0.00    -0.275 OA
ENDBRANCH   5   9
ENDBRANCH   1   5
BRANCH   3  14
ATOM     14  C   UNL     1       2.394   1.484   0.538  1.00  0.00     0.151 C 
BRANCH  14  15
ATOM     15  C   UNL     1       2.826   0.107   0.110  1.00  0.00    -0.029 A 
ATOM     16  C   UNL     1       3.017  -0.899   1.072  1.00  0.00     0.005 A 
ATOM     17  C   UNL     1       2.976  -0.204  -1.251  1.00  0.00     0.005 A 
ATOM     18  C   UNL     1       3.364  -2.194   0.676  1.00  0.00     0.000 A 
ATOM     19  C   UNL     1       3.323  -1.501  -1.643  1.00  0.00     0.000 A 
ATOM     20  C   UNL     1       3.516  -2.495  -0.680  1.00  0.00     0.000 A 
ENDBRANCH  14  15
ENDBRANCH   3  14
TORSDOF 6
