REMARK SMILES CC[C@@]1(O)C(=O)OCc2c1cc1n(c2=O)Cc2cc3c([N+](=O)[O-])cccc3nc2-1
REMARK SMILES IDX 3 1 5 2 6 3 7 4 8 5 9 6 10 7 11 8 12 9 13 10 16 11 17 12
REMARK SMILES IDX 29 13 28 14 27 15 26 16 25 17 24 18 20 19 19 20 18 21 14 22
REMARK SMILES IDX 15 23 2 24 1 25 4 26 21 28 23 29 22 30
REMARK H PARENT 4 27
REMARK Flexibility Score: inf
ROOT
ATOM      1  C   UNL     1      -3.697  -1.099   0.427  1.00  0.00     0.187 C 
ATOM      2  C   UNL     1      -4.927  -1.099  -0.460  1.00  0.00     0.343 C 
ATOM      3  O   UNL     1      -5.914  -1.821  -0.161  1.00  0.00    -0.248 OA
ATOM      4  O   UNL     1      -4.979  -0.327  -1.621  1.00  0.00    -0.458 OA
ATOM      5  C   UNL     1      -4.055   0.721  -1.892  1.00  0.00     0.275 C 
ATOM      6  C   UNL     1      -2.669   0.378  -1.410  1.00  0.00     0.062 A 
ATOM      7  C   UNL     1      -2.499  -0.469  -0.282  1.00  0.00     0.009 A 
ATOM      8  C   UNL     1      -1.200  -0.699   0.217  1.00  0.00     0.036 A 
ATOM      9  C   UNL     1      -0.127  -0.094  -0.426  1.00  0.00     0.071 A 
ATOM     10  N   UNL     1      -0.303   0.711  -1.494  1.00  0.00    -0.302 N 
ATOM     11  C   UNL     1       0.986   1.238  -1.962  1.00  0.00     0.164 C 
ATOM     12  C   UNL     1       1.953   0.611  -1.001  1.00  0.00     0.001 A 
ATOM     13  C   UNL     1       1.275  -0.170  -0.105  1.00  0.00     0.093 A 
ATOM     14  N   UNL     1       1.892  -0.826   0.906  1.00  0.00    -0.246 NA
ATOM     15  C   UNL     1       3.248  -0.732   1.036  1.00  0.00     0.078 A 
ATOM     16  C   UNL     1       3.881  -1.388   2.094  1.00  0.00     0.029 A 
ATOM     17  C   UNL     1       5.261  -1.281   2.261  1.00  0.00     0.009 A 
ATOM     18  C   UNL     1       6.025  -0.534   1.362  1.00  0.00     0.086 A 
ATOM     19  C   UNL     1       5.425   0.118   0.272  1.00  0.00     0.278 A 
ATOM     20  C   UNL     1       4.017   0.046   0.111  1.00  0.00     0.078 A 
ATOM     21  C   UNL     1       3.335   0.747  -0.914  1.00  0.00     0.025 A 
ATOM     22  C   UNL     1      -1.536   0.980  -2.002  1.00  0.00     0.258 A 
ATOM     23  O   UNL     1      -1.657   1.763  -2.983  1.00  0.00    -0.269 OA
ENDROOT
BRANCH   1  24
ATOM     24  C   UNL     1      -3.996  -0.354   1.751  1.00  0.00     0.049 C 
ATOM     25  C   UNL     1      -4.354   1.126   1.580  1.00  0.00     0.008 C 
ENDBRANCH   1  24
BRANCH   1  26
ATOM     26  O   UNL     1      -3.391  -2.436   0.755  1.00  0.00    -0.374 OA
ATOM     27  H   UNL     1      -3.184  -2.919  -0.089  1.00  0.00     0.212 HD
ENDBRANCH   1  26
BRANCH  19  28
ATOM     28  N   UNL     1       6.263   0.826  -0.656  1.00  0.00     0.063 N 
ATOM     29  O   UNL     1       7.370   1.501  -0.199  1.00  0.00    -0.258 OA
ATOM     30  O   UNL     1       6.139   0.635  -1.884  1.00  0.00    -0.258 OA
ENDBRANCH  19  28
TORSDOF 3
