REMARK SMILES CC[C@@H](c1cccc(O)c1)[C@@H](C)CN(C)C
REMARK SMILES IDX 11 1 12 2 3 3 2 4 1 5 4 6 10 7 5 8 8 9 6 10 7 11 9 12 13 14
REMARK SMILES IDX 14 15 15 16 16 17
REMARK H PARENT 9 13
REMARK Flexibility Score: inf
ROOT
ATOM      1  C   UNL     1       0.868  -1.063  -0.002  1.00  0.00     0.007 C 
ATOM      2  C   UNL     1       1.675  -2.301  -0.443  1.00  0.00     0.009 C 
ENDROOT
BRANCH   1   3
ATOM      3  C   UNL     1      -0.555  -1.033  -0.655  1.00  0.00     0.023 C 
BRANCH   3   4
ATOM      4  C   UNL     1      -1.371  -2.323  -0.375  1.00  0.00     0.005 C 
ATOM      5  C   UNL     1      -2.766  -2.292  -1.005  1.00  0.00     0.004 C 
ENDBRANCH   3   4
BRANCH   3   6
ATOM      6  C   UNL     1      -1.336   0.196  -0.204  1.00  0.00    -0.041 A 
ATOM      7  C   UNL     1      -1.741   1.158  -1.147  1.00  0.00     0.050 A 
ATOM      8  C   UNL     1      -1.662   0.391   1.152  1.00  0.00     0.004 A 
ATOM      9  C   UNL     1      -2.454   2.292  -0.745  1.00  0.00     0.115 A 
ATOM     10  C   UNL     1      -2.373   1.524   1.552  1.00  0.00     0.004 A 
ATOM     11  C   UNL     1      -2.769   2.474   0.608  1.00  0.00     0.046 A 
BRANCH   9  12
ATOM     12  O   UNL     1      -2.844   3.233  -1.696  1.00  0.00    -0.508 OA
ATOM     13  H   UNL     1      -3.361   4.065  -1.437  1.00  0.00     0.293 HD
ENDBRANCH   9  12
ENDBRANCH   3   6
ENDBRANCH   1   3
BRANCH   1  14
ATOM     14  C   UNL     1       1.666   0.223  -0.348  1.00  0.00     0.087 C 
BRANCH  14  15
ATOM     15  N   UNL     1       2.957   0.267   0.377  1.00  0.00    -0.309 NA
ATOM     16  C   UNL     1       3.944   1.054  -0.380  1.00  0.00     0.104 C 
ATOM     17  C   UNL     1       2.791   0.851   1.720  1.00  0.00     0.104 C 
ENDBRANCH  14  15
ENDBRANCH   1  14
TORSDOF 6
