REMARK SMILES CSCC[C@@H]1NC(=O)[C@H](CC(C)C)NC(=O)[C@H](CCCNC(=N)N)NC(=O)[C@H](CO)NC(=O)[C@@H]2CSSC[C@@H]3NC(=O)[C@H](CO)NC(=O)CNC(=O)[C@H]([C@@H](C)O)NC(=O)[C@H](CSSC[C@H](N)C(=O)N[C@@H](CCCCN)C(=O)NCC(=O)N[C@@H](CCCCN)C(=O)NCC(=O)N[C@@H](C)C(=O)N[C@@H](CCCCN)C(=O)N2)NC(=O)[C@H](CSSC[C@@H](C(N)=O)NC(=O)[C@H](CCCCN)NC(=O)CNC(=O)[C@H](CO)NC(=O)[C@H](CCCNC(=N)N)NC3=O)NC(=O)[C@H](CC(=O)O)NC(=O)[C@H](Cc2ccc(O)cc2)NC1=O
REMARK SMILES IDX 39 1 38 2 37 3 36 4 35 5 34 6 109 7 107 8 108 9 101 10
REMARK SMILES IDX 100 11 98 12 99 13 96 14 97 15 95 16 93 17 94 18 92 19 91 20
REMARK SMILES IDX 89 21 90 22 83 23 82 24 80 25 81 26 79 27 78 28 76 29 77 30
REMARK SMILES IDX 70 31 69 32 67 33 68 34 65 35 64 36 63 37 62 38 61 39 60 40
REMARK SMILES IDX 110 41 111 42 112 43 113 44 114 45 115 46 116 47 117 48
REMARK SMILES IDX 118 49 122 50 123 51 124 52 125 53 131 54 132 55 133 56
REMARK SMILES IDX 134 57 135 58 136 59 137 60 138 61 141 62 142 63 143 64
REMARK SMILES IDX 144 65 152 66 153 67 154 68 155 69 156 70 157 71 158 72
REMARK SMILES IDX 163 73 164 74 165 75 166 76 175 77 176 78 177 79 5 80 6 81
REMARK SMILES IDX 7 82 8 83 9 84 14 85 15 86 16 87 17 88 25 89 26 90 27 91
REMARK SMILES IDX 28 92 31 93 32 94 33 95 58 96 59 97 57 98 53 99 51 100
REMARK SMILES IDX 52 101 50 102 49 103 47 104 48 105 46 106 43 107 41 108
REMARK SMILES IDX 42 109 40 110 145 135 146 136 147 137 148 138 149 139
REMARK SMILES IDX 151 141 150 142 44 146 45 147 139 149 140 150 102 152
REMARK SMILES IDX 103 153 104 154 105 155 106 156 29 159 30 160 54 162 55 163
REMARK SMILES IDX 56 164 18 166 19 167 20 168 21 169 22 170 24 172 23 173
REMARK SMILES IDX 126 177 127 178 128 179 129 180 130 181 10 184 11 185 12 186
REMARK SMILES IDX 13 187 119 188 120 189 121 190 84 193 85 194 86 195 87 196
REMARK SMILES IDX 88 197 4 200 3 201 2 202 1 203 66 204 159 207 160 208
REMARK SMILES IDX 161 209 162 210 167 212 168 213 169 214 174 215 170 216
REMARK SMILES IDX 173 217 171 218 172 219 71 221 72 222 73 223 74 224 75 225
REMARK H PARENT 109 111 100 112 95 113 91 114 82 115 78 116 69 117 110 118
REMARK H PARENT 122 119 131 120 135 121 141 122 152 123 155 124 163 125
REMARK H PARENT 175 126 6 127 14 128 25 129 31 130 57 131 50 132 46 133 40 134
REMARK H PARENT 148 140 151 143 151 144 150 145 45 148 140 151 106 157 106 158
REMARK H PARENT 30 161 56 165 21 171 24 174 24 175 23 176 130 182 130 183
REMARK H PARENT 120 191 120 192 88 198 88 199 66 205 66 206 162 211 172 220
REMARK H PARENT 75 226 75 227
REMARK Flexibility Score: inf
ROOT
ATOM      1  C   UNL     1      -1.560  -0.535   6.393  1.00  0.00     0.182 C 
ATOM      2  C   UNL     1      -0.305   0.078   7.058  1.00  0.00     0.116 C 
ATOM      3  S   UNL     1       1.270  -0.662   6.490  1.00  0.00    -0.091 SA
ATOM      4  S   UNL     1       1.586   0.565   4.739  1.00  0.00    -0.091 SA
ATOM      5  C   UNL     1       2.234   2.057   5.583  1.00  0.00     0.116 C 
ATOM      6  C   UNL     1       2.825   3.065   4.550  1.00  0.00     0.182 C 
ATOM      7  N   UNL     1       3.677   4.034   5.250  1.00  0.00    -0.342 N 
ATOM      8  C   UNL     1       4.964   3.704   5.815  1.00  0.00     0.243 C 
ATOM      9  O   UNL     1       5.201   3.996   7.024  1.00  0.00    -0.273 OA
ATOM     10  C   UNL     1       6.089   3.083   4.982  1.00  0.00     0.171 C 
ATOM     11  N   UNL     1       5.739   1.721   4.566  1.00  0.00    -0.343 N 
ATOM     12  C   UNL     1       6.435   0.934   3.580  1.00  0.00     0.242 C 
ATOM     13  O   UNL     1       5.787   0.517   2.573  1.00  0.00    -0.273 OA
ATOM     14  C   UNL     1       7.871   0.445   3.750  1.00  0.00     0.168 C 
ATOM     15  C   UNL     1       8.423   0.578   5.177  1.00  0.00     0.041 C 
ATOM     16  N   UNL     1       8.746   1.131   2.801  1.00  0.00    -0.343 N 
ATOM     17  C   UNL     1       8.948   0.686   1.451  1.00  0.00     0.240 C 
ATOM     18  O   UNL     1       9.009   1.551   0.535  1.00  0.00    -0.273 OA
ATOM     19  C   UNL     1       9.089  -0.784   1.113  1.00  0.00     0.216 C 
ATOM     20  N   UNL     1       9.829  -0.982  -0.142  1.00  0.00    -0.345 N 
ATOM     21  C   UNL     1       9.950  -2.238  -0.822  1.00  0.00     0.243 C 
ATOM     22  O   UNL     1      10.417  -2.242  -1.995  1.00  0.00    -0.273 OA
ATOM     23  C   UNL     1       9.528  -3.548  -0.188  1.00  0.00     0.171 C 
ATOM     24  N   UNL     1       8.182  -3.926  -0.629  1.00  0.00    -0.343 N 
ATOM     25  C   UNL     1       7.865  -4.221  -2.009  1.00  0.00     0.240 C 
ATOM     26  O   UNL     1       7.220  -3.383  -2.689  1.00  0.00    -0.273 OA
ATOM     27  C   UNL     1       8.125  -5.582  -2.580  1.00  0.00     0.216 C 
ATOM     28  N   UNL     1       8.757  -5.459  -3.896  1.00  0.00    -0.345 N 
ATOM     29  C   UNL     1       8.076  -5.672  -5.133  1.00  0.00     0.243 C 
ATOM     30  O   UNL     1       8.386  -4.935  -6.119  1.00  0.00    -0.273 OA
ATOM     31  C   UNL     1       7.083  -6.793  -5.344  1.00  0.00     0.171 C 
ATOM     32  N   UNL     1       6.205  -6.495  -6.484  1.00  0.00    -0.343 N 
ATOM     33  C   UNL     1       4.877  -7.030  -6.600  1.00  0.00     0.238 C 
ATOM     34  O   UNL     1       4.538  -7.559  -7.697  1.00  0.00    -0.273 OA
ATOM     35  C   UNL     1       3.894  -6.972  -5.442  1.00  0.00     0.152 C 
ATOM     36  C   UNL     1       2.454  -7.252  -5.909  1.00  0.00     0.110 C 
ATOM     37  S   UNL     1       1.254  -6.970  -4.557  1.00  0.00    -0.092 SA
ATOM     38  S   UNL     1       0.810  -4.963  -5.204  1.00  0.00    -0.091 SA
ATOM     39  C   UNL     1      -0.981  -5.285  -5.512  1.00  0.00     0.116 C 
ATOM     40  C   UNL     1      -1.924  -4.482  -4.584  1.00  0.00     0.182 C 
ATOM     41  N   UNL     1      -2.397  -3.285  -5.286  1.00  0.00    -0.342 N 
ATOM     42  C   UNL     1      -3.767  -3.068  -5.654  1.00  0.00     0.244 C 
ATOM     43  O   UNL     1      -4.238  -3.719  -6.619  1.00  0.00    -0.273 OA
ATOM     44  C   UNL     1      -4.565  -1.981  -4.969  1.00  0.00     0.182 C 
ATOM     45  C   UNL     1      -6.038  -2.397  -4.769  1.00  0.00     0.116 C 
ATOM     46  S   UNL     1      -6.965  -1.265  -3.654  1.00  0.00    -0.091 SA
ATOM     47  S   UNL     1      -5.855  -1.618  -1.861  1.00  0.00    -0.091 SA
ATOM     48  C   UNL     1      -6.423  -3.306  -1.440  1.00  0.00     0.116 C 
ATOM     49  C   UNL     1      -7.927  -3.364  -1.078  1.00  0.00     0.182 C 
ATOM     50  N   UNL     1      -8.178  -4.432  -0.101  1.00  0.00    -0.342 N 
ATOM     51  C   UNL     1      -7.823  -4.315   1.287  1.00  0.00     0.243 C 
ATOM     52  O   UNL     1      -6.633  -4.525   1.647  1.00  0.00    -0.273 OA
ATOM     53  C   UNL     1      -8.849  -3.958   2.339  1.00  0.00     0.171 C 
ATOM     54  N   UNL     1      -8.977  -2.516   2.434  1.00  0.00    -0.343 N 
ATOM     55  C   UNL     1      -7.992  -1.717   3.105  1.00  0.00     0.240 C 
ATOM     56  O   UNL     1      -7.254  -0.951   2.419  1.00  0.00    -0.273 OA
ATOM     57  C   UNL     1      -7.926  -1.600   4.608  1.00  0.00     0.216 C 
ATOM     58  N   UNL     1      -8.623  -2.703   5.283  1.00  0.00    -0.345 N 
ATOM     59  C   UNL     1      -8.092  -3.553   6.318  1.00  0.00     0.245 C 
ATOM     60  O   UNL     1      -8.548  -4.729   6.419  1.00  0.00    -0.273 OA
ATOM     61  C   UNL     1      -7.040  -3.089   7.315  1.00  0.00     0.197 C 
ATOM     62  N   UNL     1      -5.710  -3.076   6.693  1.00  0.00    -0.340 N 
ATOM     63  C   UNL     1      -4.532  -3.528   7.381  1.00  0.00     0.243 C 
ATOM     64  O   UNL     1      -4.228  -4.755   7.324  1.00  0.00    -0.273 OA
ATOM     65  C   UNL     1      -3.542  -2.552   7.991  1.00  0.00     0.171 C 
ATOM     66  N   UNL     1      -3.799  -1.178   7.561  1.00  0.00    -0.342 N 
ATOM     67  C   UNL     1      -2.784  -0.202   7.236  1.00  0.00     0.244 C 
ATOM     68  O   UNL     1      -2.990   0.999   7.546  1.00  0.00    -0.273 OA
ATOM     69  N   UNL     1      -4.492  -0.767  -5.762  1.00  0.00    -0.342 N 
ATOM     70  C   UNL     1      -3.390   0.145  -5.704  1.00  0.00     0.243 C 
ATOM     71  O   UNL     1      -2.206  -0.315  -5.792  1.00  0.00    -0.273 OA
ATOM     72  C   UNL     1      -3.589   1.608  -5.877  1.00  0.00     0.182 C 
ATOM     73  N   UNL     1      -3.402   1.942  -7.291  1.00  0.00    -0.342 N 
ATOM     74  C   UNL     1      -2.600   3.073  -7.710  1.00  0.00     0.243 C 
ATOM     75  O   UNL     1      -1.776   2.918  -8.658  1.00  0.00    -0.273 OA
ATOM     76  C   UNL     1      -2.893   4.440  -7.162  1.00  0.00     0.175 C 
ATOM     77  N   UNL     1      -1.802   5.376  -7.478  1.00  0.00    -0.342 N 
ATOM     78  C   UNL     1      -1.395   6.462  -6.637  1.00  0.00     0.243 C 
ATOM     79  O   UNL     1      -0.269   6.988  -6.835  1.00  0.00    -0.273 OA
ATOM     80  C   UNL     1      -2.273   7.026  -5.531  1.00  0.00     0.172 C 
ATOM     81  N   UNL     1      -1.789   6.550  -4.233  1.00  0.00    -0.342 N 
ATOM     82  C   UNL     1      -0.919   7.311  -3.380  1.00  0.00     0.243 C 
ATOM     83  O   UNL     1       0.341   7.172  -3.473  1.00  0.00    -0.273 OA
ATOM     84  C   UNL     1      -1.497   8.243  -2.333  1.00  0.00     0.171 C 
ATOM     85  N   UNL     1      -1.303   7.748  -0.964  1.00  0.00    -0.343 N 
ATOM     86  C   UNL     1      -0.082   7.154  -0.521  1.00  0.00     0.243 C 
ATOM     87  O   UNL     1       0.101   5.914  -0.660  1.00  0.00    -0.273 OA
ATOM     88  C   UNL     1       0.936   7.951   0.237  1.00  0.00     0.171 C 
ATOM     89  N   UNL     1       1.005   7.377   1.597  1.00  0.00    -0.342 N 
ATOM     90  C   UNL     1       2.133   7.305   2.483  1.00  0.00     0.245 C 
ATOM     91  O   UNL     1       2.523   8.341   3.091  1.00  0.00    -0.273 OA
ATOM     92  C   UNL     1       2.691   5.953   2.893  1.00  0.00     0.197 C 
ATOM     93  N   UNL     1       1.642   5.164   3.554  1.00  0.00    -0.340 N 
ATOM     94  C   UNL     1       1.701   3.751   3.775  1.00  0.00     0.244 C 
ATOM     95  O   UNL     1       0.742   3.046   3.342  1.00  0.00    -0.273 OA
ATOM     96  C   UNL     1      -1.273  -4.075  -3.271  1.00  0.00     0.244 C 
ATOM     97  O   UNL     1      -0.999  -2.860  -3.053  1.00  0.00    -0.273 OA
ATOM     98  N   UNL     1      -0.818  -5.062  -2.347  1.00  0.00    -0.340 N 
ATOM     99  C   UNL     1      -1.556  -5.243  -1.100  1.00  0.00     0.200 C 
ATOM    100  C   UNL     1      -0.713  -6.002  -0.066  1.00  0.00     0.245 C 
ATOM    101  O   UNL     1       0.025  -6.953  -0.438  1.00  0.00    -0.273 OA
ATOM    102  N   UNL     1      -0.948  -5.804   1.326  1.00  0.00    -0.345 N 
ATOM    103  C   UNL     1      -1.414  -4.531   1.877  1.00  0.00     0.216 C 
ATOM    104  C   UNL     1      -1.060  -4.373   3.326  1.00  0.00     0.240 C 
ATOM    105  O   UNL     1      -0.621  -5.364   3.990  1.00  0.00    -0.273 OA
ATOM    106  N   UNL     1      -1.197  -3.109   3.985  1.00  0.00    -0.341 N 
ATOM    107  C   UNL     1      -2.071  -2.027   3.500  1.00  0.00     0.197 C 
ATOM    108  C   UNL     1      -1.489  -0.670   3.813  1.00  0.00     0.245 C 
ATOM    109  O   UNL     1      -0.846  -0.084   2.903  1.00  0.00    -0.273 OA
ATOM    110  N   UNL     1      -1.730   0.023   5.054  1.00  0.00    -0.342 N 
ATOM    111  H   UNL     1       3.203   4.867   5.685  1.00  0.00     0.164 HD
ATOM    112  H   UNL     1       4.887   1.269   4.984  1.00  0.00     0.164 HD
ATOM    113  H   UNL     1       9.019   2.118   3.002  1.00  0.00     0.164 HD
ATOM    114  H   UNL     1      10.338  -0.169  -0.562  1.00  0.00     0.164 HD
ATOM    115  H   UNL     1       7.391  -3.616  -0.023  1.00  0.00     0.164 HD
ATOM    116  H   UNL     1       9.711  -5.011  -3.941  1.00  0.00     0.164 HD
ATOM    117  H   UNL     1       6.645  -6.169  -7.374  1.00  0.00     0.164 HD
ATOM    118  H   UNL     1      -1.712  -2.538  -5.465  1.00  0.00     0.164 HD
ATOM    119  H   UNL     1      -8.289  -5.411  -0.465  1.00  0.00     0.164 HD
ATOM    120  H   UNL     1      -9.522  -2.038   1.676  1.00  0.00     0.164 HD
ATOM    121  H   UNL     1      -9.628  -2.852   5.039  1.00  0.00     0.164 HD
ATOM    122  H   UNL     1      -5.682  -3.268   5.660  1.00  0.00     0.164 HD
ATOM    123  H   UNL     1      -4.756  -0.787   7.730  1.00  0.00     0.164 HD
ATOM    124  H   UNL     1      -5.221  -0.602  -6.518  1.00  0.00     0.164 HD
ATOM    125  H   UNL     1      -3.615   1.213  -8.002  1.00  0.00     0.164 HD
ATOM    126  H   UNL     1      -1.343   5.319  -8.421  1.00  0.00     0.164 HD
ATOM    127  H   UNL     1      -1.853   5.524  -4.047  1.00  0.00     0.164 HD
ATOM    128  H   UNL     1      -2.161   7.511  -0.415  1.00  0.00     0.164 HD
ATOM    129  H   UNL     1       0.074   7.283   2.071  1.00  0.00     0.164 HD
ATOM    130  H   UNL     1       0.701   5.603   3.704  1.00  0.00     0.164 HD
ATOM    131  H   UNL     1       0.226  -5.222  -2.306  1.00  0.00     0.164 HD
ATOM    132  H   UNL     1      -1.050  -6.668   1.903  1.00  0.00     0.164 HD
ATOM    133  H   UNL     1      -0.713  -3.013   4.906  1.00  0.00     0.164 HD
ATOM    134  H   UNL     1      -1.834   1.065   4.988  1.00  0.00     0.164 HD
ENDROOT
BRANCH  65 135
ATOM    135  C   UNL     1      -3.534  -2.650   9.542  1.00  0.00     0.037 C 
BRANCH 135 136
ATOM    136  C   UNL     1      -2.936  -3.984  10.044  1.00  0.00     0.024 C 
BRANCH 136 137
ATOM    137  C   UNL     1      -2.878  -4.136  11.579  1.00  0.00     0.116 C 
BRANCH 137 138
ATOM    138  N   UNL     1      -4.010  -3.472  12.256  1.00  0.00    -0.357 N 
ATOM    139  C   UNL     1      -5.321  -4.043  12.433  1.00  0.00     0.185 C 
ATOM    140  H   UNL     1      -3.779  -2.622  12.839  1.00  0.00     0.163 HD
ATOM    141  N   UNL     1      -6.165  -3.523  13.435  1.00  0.00    -0.370 N 
ATOM    142  N   UNL     1      -5.841  -4.859  11.556  1.00  0.00    -0.270 NA
ATOM    143  H   UNL     1      -5.831  -3.440  14.426  1.00  0.00     0.159 HD
ATOM    144  H   UNL     1      -6.930  -2.877  13.139  1.00  0.00     0.159 HD
ATOM    145  H   UNL     1      -5.313  -5.196  10.713  1.00  0.00     0.191 HD
ENDBRANCH 137 138
ENDBRANCH 136 137
ENDBRANCH 135 136
ENDBRANCH  65 135
BRANCH 107 146
ATOM    146  C   UNL     1      -3.499  -2.182   4.034  1.00  0.00     0.191 C 
BRANCH 146 147
ATOM    147  O   UNL     1      -4.101  -3.333   3.500  1.00  0.00    -0.394 OA
ATOM    148  H   UNL     1      -3.943  -4.063   4.160  1.00  0.00     0.210 HD
ENDBRANCH 146 147
ENDBRANCH 107 146
BRANCH  61 149
ATOM    149  C   UNL     1      -7.419  -1.709   7.896  1.00  0.00     0.191 C 
BRANCH 149 150
ATOM    150  O   UNL     1      -6.738  -1.456   9.091  1.00  0.00    -0.394 OA
ATOM    151  H   UNL     1      -7.123  -2.065   9.781  1.00  0.00     0.210 HD
ENDBRANCH 149 150
ENDBRANCH  61 149
BRANCH  10 152
ATOM    152  C   UNL     1       6.439   4.019   3.792  1.00  0.00     0.035 C 
BRANCH 152 153
ATOM    153  C   UNL     1       7.282   5.238   4.241  1.00  0.00     0.004 C 
BRANCH 153 154
ATOM    154  C   UNL     1       8.764   4.861   4.519  1.00  0.00     0.015 C 
BRANCH 154 155
ATOM    155  C   UNL     1       9.324   5.449   5.835  1.00  0.00     0.077 C 
BRANCH 155 156
ATOM    156  N   UNL     1       8.785   4.711   6.977  1.00  0.00    -0.330 NA
ATOM    157  H   UNL     1       7.876   5.151   7.250  1.00  0.00     0.118 HD
ATOM    158  H   UNL     1       9.421   4.878   7.790  1.00  0.00     0.118 HD
ENDBRANCH 155 156
ENDBRANCH 154 155
ENDBRANCH 153 154
ENDBRANCH 152 153
ENDBRANCH  10 152
BRANCH  92 159
ATOM    159  C   UNL     1       3.278   5.213   1.667  1.00  0.00     0.191 C 
BRANCH 159 160
ATOM    160  O   UNL     1       4.312   5.939   1.056  1.00  0.00    -0.394 OA
ATOM    161  H   UNL     1       4.943   6.214   1.783  1.00  0.00     0.210 HD
ENDBRANCH 159 160
ENDBRANCH  92 159
BRANCH  99 162
ATOM    162  C   UNL     1      -2.907  -5.953  -1.362  1.00  0.00     0.143 C 
ATOM    163  C   UNL     1      -2.736  -7.316  -2.053  1.00  0.00     0.041 C 
BRANCH 162 164
ATOM    164  O   UNL     1      -3.658  -6.097  -0.178  1.00  0.00    -0.391 OA
ATOM    165  H   UNL     1      -3.224  -6.799   0.383  1.00  0.00     0.211 HD
ENDBRANCH 162 164
ENDBRANCH  99 162
BRANCH  88 166
ATOM    166  C   UNL     1       2.270   7.914  -0.573  1.00  0.00     0.037 C 
BRANCH 166 167
ATOM    167  C   UNL     1       3.377   8.870  -0.094  1.00  0.00     0.024 C 
BRANCH 167 168
ATOM    168  C   UNL     1       3.081  10.337  -0.458  1.00  0.00     0.116 C 
BRANCH 168 169
ATOM    169  N   UNL     1       3.928  11.218   0.346  1.00  0.00    -0.357 N 
ATOM    170  C   UNL     1       3.643  11.439   1.734  1.00  0.00     0.185 C 
ATOM    171  H   UNL     1       4.778  11.650  -0.082  1.00  0.00     0.163 HD
ATOM    172  N   UNL     1       4.682  11.298   2.709  1.00  0.00    -0.370 N 
ATOM    173  N   UNL     1       2.443  11.743   2.100  1.00  0.00    -0.270 NA
ATOM    174  H   UNL     1       5.682  11.358   2.418  1.00  0.00     0.159 HD
ATOM    175  H   UNL     1       4.466  10.745   3.568  1.00  0.00     0.159 HD
ATOM    176  H   UNL     1       2.201  11.892   3.101  1.00  0.00     0.191 HD
ENDBRANCH 168 169
ENDBRANCH 167 168
ENDBRANCH 166 167
ENDBRANCH  88 166
BRANCH  53 177
ATOM    177  C   UNL     1     -10.212  -4.602   2.035  1.00  0.00     0.035 C 
BRANCH 177 178
ATOM    178  C   UNL     1     -11.209  -4.363   3.186  1.00  0.00     0.004 C 
BRANCH 178 179
ATOM    179  C   UNL     1     -12.563  -5.053   2.962  1.00  0.00     0.015 C 
BRANCH 179 180
ATOM    180  C   UNL     1     -12.481  -6.583   3.013  1.00  0.00     0.077 C 
BRANCH 180 181
ATOM    181  N   UNL     1     -11.920  -7.028   4.282  1.00  0.00    -0.330 NA
ATOM    182  H   UNL     1     -12.685  -7.004   4.994  1.00  0.00     0.118 HD
ATOM    183  H   UNL     1     -11.646  -8.028   4.169  1.00  0.00     0.118 HD
ENDBRANCH 180 181
ENDBRANCH 179 180
ENDBRANCH 178 179
ENDBRANCH 177 178
ENDBRANCH  53 177
BRANCH  84 184
ATOM    184  C   UNL     1      -0.890   9.652  -2.468  1.00  0.00     0.038 C 
BRANCH 184 185
ATOM    185  C   UNL     1      -1.675  10.714  -1.674  1.00  0.00    -0.015 C 
ATOM    186  C   UNL     1      -2.993  11.077  -2.385  1.00  0.00     0.007 C 
ATOM    187  C   UNL     1      -0.822  11.974  -1.508  1.00  0.00     0.007 C 
ENDBRANCH 184 185
ENDBRANCH  84 184
BRANCH  49 188
ATOM    188  C   UNL     1      -8.806  -3.597  -2.273  1.00  0.00     0.240 C 
ATOM    189  N   UNL     1     -10.170  -3.210  -2.219  1.00  0.00    -0.368 N 
ATOM    190  O   UNL     1      -8.378  -4.234  -3.277  1.00  0.00    -0.273 OA
ATOM    191  H   UNL     1     -10.540  -2.682  -1.401  1.00  0.00     0.159 HD
ATOM    192  H   UNL     1     -10.799  -3.388  -3.043  1.00  0.00     0.159 HD
ENDBRANCH  49 188
BRANCH  23 193
ATOM    193  C   UNL     1      10.556  -4.671  -0.456  1.00  0.00     0.035 C 
BRANCH 193 194
ATOM    194  C   UNL     1      11.904  -4.399   0.215  1.00  0.00     0.004 C 
BRANCH 194 195
ATOM    195  C   UNL     1      12.944  -5.439  -0.211  1.00  0.00     0.015 C 
BRANCH 195 196
ATOM    196  C   UNL     1      14.286  -5.208   0.495  1.00  0.00     0.077 C 
BRANCH 196 197
ATOM    197  N   UNL     1      14.848  -3.913   0.107  1.00  0.00    -0.330 NA
ATOM    198  H   UNL     1      15.247  -4.013  -0.854  1.00  0.00     0.118 HD
ATOM    199  H   UNL     1      15.652  -3.718   0.753  1.00  0.00     0.118 HD
ENDBRANCH 196 197
ENDBRANCH 195 196
ENDBRANCH 194 195
ENDBRANCH 193 194
ENDBRANCH  23 193
BRANCH  80 200
ATOM    200  C   UNL     1      -2.325   8.580  -5.612  1.00  0.00     0.046 C 
BRANCH 200 201
ATOM    201  C   UNL     1      -3.077   9.112  -6.838  1.00  0.00     0.072 C 
BRANCH 201 202
ATOM    202  S   UNL     1      -4.877   8.754  -6.779  1.00  0.00    -0.165 SA
ATOM    203  C   UNL     1      -5.304   9.861  -5.381  1.00  0.00     0.085 C 
ENDBRANCH 201 202
ENDBRANCH 200 201
ENDBRANCH  80 200
BRANCH  35 204
ATOM    204  N   UNL     1       3.935  -5.675  -4.756  1.00  0.00    -0.319 NA
ATOM    205  H   UNL     1       4.170  -4.914  -5.436  1.00  0.00     0.119 HD
ATOM    206  H   UNL     1       4.654  -5.690  -3.998  1.00  0.00     0.119 HD
ENDBRANCH  35 204
BRANCH  72 207
ATOM    207  C   UNL     1      -4.940   2.134  -5.301  1.00  0.00     0.157 C 
BRANCH 207 208
ATOM    208  C   UNL     1      -6.159   1.795  -6.122  1.00  0.00     0.305 C 
ATOM    209  O   UNL     1      -6.149   1.887  -7.383  1.00  0.00    -0.252 OA
BRANCH 208 210
ATOM    210  O   UNL     1      -7.343   1.474  -5.471  1.00  0.00    -0.481 OA
ATOM    211  H   UNL     1      -8.196   1.324  -6.007  1.00  0.00     0.296 HD
ENDBRANCH 208 210
ENDBRANCH 207 208
ENDBRANCH  72 207
BRANCH  76 212
ATOM    212  C   UNL     1      -4.231   4.970  -7.705  1.00  0.00     0.070 C 
BRANCH 212 213
ATOM    213  C   UNL     1      -4.298   5.109  -9.211  1.00  0.00    -0.045 A 
ATOM    214  C   UNL     1      -4.651   3.999 -10.003  1.00  0.00     0.007 A 
ATOM    215  C   UNL     1      -4.178   6.377  -9.803  1.00  0.00     0.007 A 
ATOM    216  C   UNL     1      -4.962   4.181 -11.355  1.00  0.00     0.046 A 
ATOM    217  C   UNL     1      -4.515   6.556 -11.143  1.00  0.00     0.046 A 
ATOM    218  C   UNL     1      -4.955   5.464 -11.910  1.00  0.00     0.115 A 
BRANCH 218 219
ATOM    219  O   UNL     1      -5.407   5.647 -13.209  1.00  0.00    -0.508 OA
ATOM    220  H   UNL     1      -5.502   6.575 -13.608  1.00  0.00     0.293 HD
ENDBRANCH 218 219
ENDBRANCH 212 213
ENDBRANCH  76 212
BRANCH  31 221
ATOM    221  C   UNL     1       7.801  -8.138  -5.551  1.00  0.00     0.035 C 
BRANCH 221 222
ATOM    222  C   UNL     1       8.662  -8.181  -6.831  1.00  0.00     0.004 C 
BRANCH 222 223
ATOM    223  C   UNL     1       9.292  -9.567  -7.066  1.00  0.00     0.015 C 
BRANCH 223 224
ATOM    224  C   UNL     1       8.263 -10.685  -7.333  1.00  0.00     0.077 C 
BRANCH 224 225
ATOM    225  N   UNL     1       7.369 -10.325  -8.429  1.00  0.00    -0.330 NA
ATOM    226  H   UNL     1       6.683 -11.112  -8.522  1.00  0.00     0.118 HD
ATOM    227  H   UNL     1       7.926 -10.303  -9.306  1.00  0.00     0.118 HD
ENDBRANCH 224 225
ENDBRANCH 223 224
ENDBRANCH 222 223
ENDBRANCH 221 222
ENDBRANCH  31 221
TORSDOF 49
