REMARK SMILES CC1=C(CC(=O)O)c2cc(F)ccc2/C1=C\c1ccc(S(C)(=O)=O)cc1
REMARK SMILES IDX 1 1 2 2 3 3 8 4 9 5 10 6 11 7 12 8 13 9 14 10 15 11 16 12
REMARK SMILES IDX 4 13 5 14 6 15 7 16 17 18 18 19 26 20 19 21 25 22 20 23
REMARK SMILES IDX 21 24 22 25 23 26 24 27
REMARK H PARENT 7 17
REMARK Flexibility Score: inf
ROOT
ATOM      1  C   UNL     1      -2.629   2.362   1.668  1.00  0.00     0.045 C 
ATOM      2  C   UNL     1      -2.352   1.070   0.950  1.00  0.00    -0.039 C 
ATOM      3  C   UNL     1      -3.222   0.057   0.808  1.00  0.00    -0.025 C 
ATOM      4  C   UNL     1      -2.562  -1.020   0.068  1.00  0.00    -0.011 A 
ATOM      5  C   UNL     1      -3.101  -2.215  -0.417  1.00  0.00     0.048 A 
ATOM      6  C   UNL     1      -2.286  -3.047  -1.200  1.00  0.00     0.123 A 
ATOM      7  F   UNL     1      -2.780  -4.211  -1.687  1.00  0.00    -0.207 F 
ATOM      8  C   UNL     1      -0.969  -2.660  -1.510  1.00  0.00     0.040 A 
ATOM      9  C   UNL     1      -0.450  -1.448  -1.025  1.00  0.00     0.012 A 
ATOM     10  C   UNL     1      -1.258  -0.658  -0.196  1.00  0.00    -0.010 A 
ATOM     11  C   UNL     1      -1.039   0.667   0.402  1.00  0.00    -0.014 C 
ATOM     12  C   UNL     1       0.100   1.374   0.513  1.00  0.00     0.017 C 
ENDROOT
BRANCH   3  13
ATOM     13  C   UNL     1      -4.661   0.042   1.248  1.00  0.00     0.159 C 
BRANCH  13  14
ATOM     14  C   UNL     1      -5.539   0.571   0.160  1.00  0.00     0.307 C 
ATOM     15  O   UNL     1      -5.931  -0.194  -0.762  1.00  0.00    -0.252 OA
BRANCH  14  16
ATOM     16  O   UNL     1      -5.894   1.916   0.144  1.00  0.00    -0.481 OA
ATOM     17  H   UNL     1      -6.476   2.291  -0.595  1.00  0.00     0.296 HD
ENDBRANCH  14  16
ENDBRANCH  13  14
ENDBRANCH   3  13
BRANCH  12  18
ATOM     18  C   UNL     1       1.437   0.855   0.182  1.00  0.00    -0.025 A 
ATOM     19  C   UNL     1       2.270   1.584  -0.678  1.00  0.00     0.009 A 
ATOM     20  C   UNL     1       1.929  -0.307   0.799  1.00  0.00     0.009 A 
ATOM     21  C   UNL     1       3.560   1.126  -0.965  1.00  0.00     0.021 A 
ATOM     22  C   UNL     1       3.218  -0.764   0.512  1.00  0.00     0.021 A 
ATOM     23  C   UNL     1       4.035  -0.056  -0.380  1.00  0.00     0.067 A 
BRANCH  23  24
ATOM     24  S   UNL     1       5.664  -0.624  -0.729  1.00  0.00     0.175 S 
ATOM     25  C   UNL     1       6.798   0.077   0.447  1.00  0.00     0.163 C 
ATOM     26  O   UNL     1       5.710  -2.124  -0.640  1.00  0.00    -0.224 OA
ATOM     27  O   UNL     1       6.060  -0.211  -2.119  1.00  0.00    -0.224 OA
ENDBRANCH  23  24
ENDBRANCH  12  18
TORSDOF 5
