REMARK SMILES CNC(C)CC1CCCCC1
REMARK SMILES IDX 3 1 4 2 2 3 1 4 5 6 6 7 7 8 11 9 8 10 10 11 9 12
REMARK H PARENT 2 5
REMARK Flexibility Score: inf
ROOT
ATOM      1  C   UNL     1       1.844   0.281   0.588  1.00  0.00     0.050 C 
ATOM      2  C   UNL     1       2.677   0.367   1.880  1.00  0.00     0.024 C 
ENDROOT
BRANCH   1   3
ATOM      3  N   UNL     1       2.548  -0.491  -0.455  1.00  0.00    -0.317 NA
ATOM      4  C   UNL     1       3.515   0.326  -1.192  1.00  0.00     0.101 C 
ATOM      5  H   UNL     1       3.050  -1.306  -0.030  1.00  0.00     0.122 HD
ENDBRANCH   1   3
BRANCH   1   6
ATOM      6  C   UNL     1       0.484  -0.385   0.887  1.00  0.00     0.022 C 
BRANCH   6   7
ATOM      7  C   UNL     1      -0.495  -0.343  -0.314  1.00  0.00    -0.010 C 
ATOM      8  C   UNL     1      -1.560  -1.460  -0.166  1.00  0.00     0.003 C 
ATOM      9  C   UNL     1      -1.137   1.064  -0.497  1.00  0.00     0.003 C 
ATOM     10  C   UNL     1      -2.796  -1.171  -1.024  1.00  0.00     0.000 C 
ATOM     11  C   UNL     1      -2.553   1.142   0.085  1.00  0.00     0.000 C 
ATOM     12  C   UNL     1      -3.500   0.129  -0.586  1.00  0.00     0.000 C 
ENDBRANCH   6   7
ENDBRANCH   1   6
TORSDOF 3
