REMARK SMILES CN1CCN2c3ccccc3Cc3ccccc3C2C1
REMARK SMILES IDX 1 1 2 2 3 3 4 4 5 5 19 6 20 7 18 8 17 9 16 10 15 11 14 12
REMARK SMILES IDX 13 13 12 14 11 15 10 16 9 17 8 18 7 19 6 20
REMARK H PARENT
REMARK Flexibility Score: inf
ROOT
ATOM      1  C   UNL     1       4.425  -0.240  -0.336  1.00  0.00     0.105 C 
ATOM      2  N   UNL     1       3.125  -0.206  -1.024  1.00  0.00    -0.302 NA
ATOM      3  C   UNL     1       2.553  -1.566  -1.170  1.00  0.00     0.105 C 
ATOM      4  C   UNL     1       1.487  -1.885  -0.113  1.00  0.00     0.133 C 
ATOM      5  N   UNL     1       0.409  -0.877  -0.116  1.00  0.00    -0.362 N 
ATOM      6  C   UNL     1       0.734   0.462  -0.667  1.00  0.00     0.127 C 
ATOM      7  C   UNL     1       2.220   0.774  -0.378  1.00  0.00     0.114 C 
ATOM      8  C   UNL     1      -0.233   1.558  -0.208  1.00  0.00    -0.021 A 
ATOM      9  C   UNL     1       0.173   2.648   0.596  1.00  0.00     0.006 A 
ATOM     10  C   UNL     1      -0.728   3.663   0.930  1.00  0.00     0.000 A 
ATOM     11  C   UNL     1      -2.045   3.607   0.482  1.00  0.00     0.000 A 
ATOM     12  C   UNL     1      -2.475   2.527  -0.288  1.00  0.00     0.004 A 
ATOM     13  C   UNL     1      -1.579   1.504  -0.641  1.00  0.00    -0.038 A 
ATOM     14  C   UNL     1      -2.100   0.260  -1.304  1.00  0.00     0.073 C 
ATOM     15  C   UNL     1      -2.113  -0.829  -0.269  1.00  0.00    -0.020 A 
ATOM     16  C   UNL     1      -3.355  -1.314   0.182  1.00  0.00     0.006 A 
ATOM     17  C   UNL     1      -3.423  -2.245   1.216  1.00  0.00     0.000 A 
ATOM     18  C   UNL     1      -2.255  -2.693   1.827  1.00  0.00     0.002 A 
ATOM     19  C   UNL     1      -1.015  -2.221   1.397  1.00  0.00     0.026 A 
ATOM     20  C   UNL     1      -0.912  -1.292   0.339  1.00  0.00     0.041 A 
ENDROOT
TORSDOF 0
