REMARK SMILES CC(=O)OCC(=O)[C@H]1CC[C@H]2[C@@H]3CCC4=CC(=O)CC[C@]4(C)[C@H]3CC[C@]12C
REMARK SMILES IDX 5 1 6 2 7 3 8 4 11 5 10 6 26 7 12 8 9 9 27 10 25 11 23 12
REMARK SMILES IDX 13 13 24 14 21 15 14 16 15 17 20 18 22 19 16 20 19 21 17 22
REMARK SMILES IDX 18 23 4 24 2 25 1 26 3 27
REMARK H PARENT
REMARK Flexibility Score: inf
ROOT
ATOM      1  C   UNL     1       4.822  -2.199  -0.092  1.00  0.00     0.308 C 
ENDROOT
BRANCH   1   2
ATOM      2  C   UNL     1       3.414  -1.967  -0.585  1.00  0.00     0.173 C 
ATOM      3  O   UNL     1       3.208  -2.083  -1.784  1.00  0.00    -0.296 OA
BRANCH   2   4
ATOM      4  C   UNL     1       2.226  -1.765   0.350  1.00  0.00     0.066 C 
ATOM      5  C   UNL     1       0.295  -0.638   1.121  1.00  0.00    -0.001 C 
ATOM      6  C   UNL     1       1.332  -0.396   2.211  1.00  0.00     0.005 C 
ATOM      7  C   UNL     1       1.113  -0.816  -0.166  1.00  0.00    -0.020 C 
ATOM      8  C   UNL     1      -0.869   0.363   0.961  1.00  0.00    -0.003 C 
ATOM      9  C   UNL     1       2.563  -1.199   1.753  1.00  0.00     0.012 C 
ATOM     10  C   UNL     1       1.742   0.515  -0.696  1.00  0.00     0.012 C 
ATOM     11  C   UNL     1       0.174  -1.428  -1.231  1.00  0.00     0.008 C 
ATOM     12  C   UNL     1      -1.832  -0.175  -0.151  1.00  0.00     0.002 C 
ATOM     13  C   UNL     1      -1.640   0.519   2.282  1.00  0.00     0.008 C 
ATOM     14  C   UNL     1      -1.070  -0.538  -1.466  1.00  0.00     0.005 C 
ATOM     15  C   UNL     1      -3.086   0.759  -0.376  1.00  0.00    -0.008 C 
ATOM     16  C   UNL     1      -2.793   1.506   2.125  1.00  0.00     0.032 C 
ATOM     17  C   UNL     1      -3.703   1.104   0.988  1.00  0.00    -0.060 C 
ATOM     18  C   UNL     1      -4.130  -0.002  -1.258  1.00  0.00     0.019 C 
ATOM     19  C   UNL     1      -2.696   2.086  -1.077  1.00  0.00     0.016 C 
ATOM     20  C   UNL     1      -5.032   1.252   1.148  1.00  0.00     0.047 C 
ATOM     21  C   UNL     1      -5.491   0.695  -1.321  1.00  0.00     0.081 C 
ATOM     22  C   UNL     1      -5.981   1.015   0.054  1.00  0.00     0.155 C 
ATOM     23  O   UNL     1      -7.217   1.137   0.264  1.00  0.00    -0.295 OA
ENDBRANCH   2   4
ENDBRANCH   1   2
BRANCH   1  24
ATOM     24  O   UNL     1       5.750  -1.415  -0.841  1.00  0.00    -0.458 OA
BRANCH  24  25
ATOM     25  C   UNL     1       5.884  -0.030  -0.699  1.00  0.00     0.303 C 
ATOM     26  C   UNL     1       6.828   0.710  -1.584  1.00  0.00     0.139 C 
ATOM     27  O   UNL     1       5.192   0.605   0.141  1.00  0.00    -0.253 OA
ENDBRANCH  24  25
ENDBRANCH   1  24
TORSDOF 4
