REMARK SMILES CCOc1ccc(Cc2cc([C@@H]3O[C@H](CO)[C@@H](O)[C@H](O)[C@H]3O)ccc2Cl)cc1
REMARK SMILES IDX 9 1 25 2 26 3 24 4 23 5 11 6 10 7 8 8 7 9 4 10 5 11 28 12
REMARK SMILES IDX 6 13 27 14 3 15 2 16 1 17 12 18 13 19 21 20 14 21 19 22
REMARK SMILES IDX 17 23 22 24 15 26 16 27 20 29 18 31
REMARK H PARENT 22 25 16 28 20 30 18 32
REMARK Flexibility Score: inf
ROOT
ATOM      1  C   UNL     1       0.625   1.265  -1.698  1.00  0.00    -0.025 A 
ATOM      2  C   UNL     1       0.824   2.531  -1.105  1.00  0.00     0.044 A 
ATOM      3  Cl  UNL     1       2.229   3.525  -1.473  1.00  0.00    -0.084 Cl
ATOM      4  C   UNL     1      -0.113   3.029  -0.193  1.00  0.00     0.021 A 
ATOM      5  C   UNL     1      -1.243   2.282   0.141  1.00  0.00     0.008 A 
ATOM      6  C   UNL     1      -1.462   1.025  -0.445  1.00  0.00    -0.016 A 
ATOM      7  C   UNL     1      -0.518   0.521  -1.354  1.00  0.00     0.012 A 
ENDROOT
BRANCH   1   8
ATOM      8  C   UNL     1       1.637   0.660  -2.642  1.00  0.00     0.072 C 
BRANCH   8   9
ATOM      9  C   UNL     1       2.708  -0.073  -1.875  1.00  0.00    -0.043 A 
ATOM     10  C   UNL     1       4.685  -1.431  -0.392  1.00  0.00     0.119 A 
ATOM     11  C   UNL     1       4.969  -0.187  -0.988  1.00  0.00     0.047 A 
ATOM     12  C   UNL     1       3.411  -1.987  -0.553  1.00  0.00     0.047 A 
ATOM     13  C   UNL     1       3.986   0.484  -1.722  1.00  0.00     0.008 A 
ATOM     14  C   UNL     1       2.428  -1.317  -1.286  1.00  0.00     0.008 A 
BRANCH  10  15
ATOM     15  O   UNL     1       5.631  -2.151   0.357  1.00  0.00    -0.494 OA
BRANCH  15  16
ATOM     16  C   UNL     1       6.934  -1.689   0.713  1.00  0.00     0.226 C 
ATOM     17  C   UNL     1       6.856  -0.666   1.841  1.00  0.00     0.049 C 
ENDBRANCH  15  16
ENDBRANCH  10  15
ENDBRANCH   8   9
ENDBRANCH   1   8
BRANCH   6  18
ATOM     18  C   UNL     1      -2.660   0.190  -0.050  1.00  0.00     0.180 C 
ATOM     19  O   UNL     1      -3.805   1.025   0.010  1.00  0.00    -0.362 OA
ATOM     20  C   UNL     1      -2.408  -0.484   1.317  1.00  0.00     0.179 C 
ATOM     21  C   UNL     1      -4.977   0.259   0.235  1.00  0.00     0.176 C 
ATOM     22  C   UNL     1      -3.647  -1.295   1.732  1.00  0.00     0.177 C 
ATOM     23  C   UNL     1      -4.912  -0.419   1.627  1.00  0.00     0.177 C 
BRANCH  20  24
ATOM     24  O   UNL     1      -1.293  -1.335   1.223  1.00  0.00    -0.387 OA
ATOM     25  H   UNL     1      -0.955  -1.470   2.146  1.00  0.00     0.211 HD
ENDBRANCH  20  24
BRANCH  21  26
ATOM     26  C   UNL     1      -6.194   1.191   0.142  1.00  0.00     0.191 C 
BRANCH  26  27
ATOM     27  O   UNL     1      -6.280   1.755  -1.139  1.00  0.00    -0.394 OA
ATOM     28  H   UNL     1      -5.654   2.525  -1.157  1.00  0.00     0.210 HD
ENDBRANCH  26  27
ENDBRANCH  21  26
BRANCH  22  29
ATOM     29  O   UNL     1      -3.485  -1.747   3.052  1.00  0.00    -0.387 OA
ATOM     30  H   UNL     1      -4.108  -2.510   3.173  1.00  0.00     0.211 HD
ENDBRANCH  22  29
BRANCH  23  31
ATOM     31  O   UNL     1      -6.065  -1.185   1.876  1.00  0.00    -0.388 OA
ATOM     32  H   UNL     1      -6.125  -1.878   1.167  1.00  0.00     0.211 HD
ENDBRANCH  23  31
ENDBRANCH   6  18
TORSDOF 10
