REMARK SMILES CCCn1cnc2c1c(=O)n(CCCCC(C)=O)c(=O)n2C
REMARK SMILES IDX 12 1 11 2 4 3 5 4 8 5 6 6 7 7 9 8 21 9 10 10 19 11 22 12
REMARK SMILES IDX 20 13 3 14 2 15 1 16 13 17 14 18 15 19 16 20 17 21 18 22
REMARK H PARENT
REMARK Flexibility Score: inf
ROOT
ATOM      1  C   UNL     1       1.177  -0.901   0.576  1.00  0.00     0.131 C 
ENDROOT
BRANCH   1   2
ATOM      2  N   UNL     1      -0.191  -1.085   0.050  1.00  0.00    -0.258 N 
ATOM      3  N   UNL     1      -3.201   0.684  -1.126  1.00  0.00    -0.325 N 
ATOM      4  C   UNL     1      -4.234  -0.105  -1.513  1.00  0.00     0.202 A 
ATOM      5  C   UNL     1      -2.236  -0.188  -0.770  1.00  0.00     0.152 A 
ATOM      6  N   UNL     1      -3.961  -1.431  -1.427  1.00  0.00    -0.218 NA
ATOM      7  C   UNL     1      -2.698  -1.447  -0.958  1.00  0.00     0.167 A 
ATOM      8  C   UNL     1      -0.954   0.018  -0.265  1.00  0.00     0.282 A 
ATOM      9  N   UNL     1      -1.946  -2.549  -0.689  1.00  0.00    -0.279 N 
ATOM     10  O   UNL     1      -0.505   1.184  -0.103  1.00  0.00    -0.267 OA
ATOM     11  C   UNL     1      -0.684  -2.361  -0.170  1.00  0.00     0.332 A 
ATOM     12  C   UNL     1      -2.493  -3.899  -0.881  1.00  0.00     0.157 C 
ATOM     13  O   UNL     1       0.030  -3.366   0.107  1.00  0.00    -0.247 OA
BRANCH   3  14
ATOM     14  C   UNL     1      -3.223   2.148  -1.062  1.00  0.00     0.124 C 
BRANCH  14  15
ATOM     15  C   UNL     1      -3.944   2.638   0.200  1.00  0.00     0.018 C 
ATOM     16  C   UNL     1      -3.179   2.305   1.478  1.00  0.00     0.006 C 
ENDBRANCH  14  15
ENDBRANCH   3  14
ENDBRANCH   1   2
BRANCH   1  17
ATOM     17  C   UNL     1       2.181  -0.814  -0.582  1.00  0.00     0.023 C 
BRANCH  17  18
ATOM     18  C   UNL     1       3.639  -0.750  -0.100  1.00  0.00     0.010 C 
BRANCH  18  19
ATOM     19  C   UNL     1       3.986   0.593   0.558  1.00  0.00     0.075 C 
BRANCH  19  20
ATOM     20  C   UNL     1       5.455   0.661   0.882  1.00  0.00     0.129 C 
ATOM     21  C   UNL     1       6.367   1.623   0.179  1.00  0.00     0.087 C 
ATOM     22  O   UNL     1       5.916  -0.075   1.741  1.00  0.00    -0.300 OA
ENDBRANCH  19  20
ENDBRANCH  18  19
ENDBRANCH  17  18
ENDBRANCH   1  17
TORSDOF 7
