REMARK SMILES OCC(S)CS
REMARK SMILES IDX 3 1 2 2 1 3 4 5 5 7 6 8
REMARK H PARENT 1 4 4 6 6 9
REMARK Flexibility Score: inf
ROOT
ATOM      1  C   UNL     1       0.175   0.264   0.461  1.00  0.00     0.078 C 
ENDROOT
BRANCH   1   2
ATOM      2  C   UNL     1      -1.327   0.011   0.288  1.00  0.00     0.171 C 
BRANCH   2   3
ATOM      3  O   UNL     1      -1.589  -1.365   0.299  1.00  0.00    -0.395 OA
ATOM      4  H   UNL     1      -2.568  -1.461   0.173  1.00  0.00     0.210 HD
ENDBRANCH   2   3
ENDBRANCH   1   2
BRANCH   1   5
ATOM      5  S   UNL     1       0.471   2.055   0.686  1.00  0.00    -0.173 SA
ATOM      6  H   UNL     1      -0.054   2.407  -0.573  1.00  0.00     0.103 HD
ENDBRANCH   1   5
BRANCH   1   7
ATOM      7  C   UNL     1       0.975  -0.273  -0.738  1.00  0.00     0.082 C 
BRANCH   7   8
ATOM      8  S   UNL     1       2.771  -0.165  -0.443  1.00  0.00    -0.178 SA
ATOM      9  H   UNL     1       2.741  -1.130   0.583  1.00  0.00     0.102 HD
ENDBRANCH   7   8
ENDBRANCH   1   7
TORSDOF 5
