REMARK SMILES Cc1cc(C)c(/C=C2\C(=O)Nc3ccccc32)[nH]1
REMARK SMILES IDX 7 1 8 2 9 3 10 4 11 5 12 6 13 7 14 8 15 9 16 10 17 11 6 13
REMARK SMILES IDX 1 14 2 15 3 16 18 17 4 18 5 20
REMARK H PARENT 11 12 18 19
REMARK Flexibility Score: inf
ROOT
ATOM      1  C   UNL     1      -0.068  -0.676   0.189  1.00  0.00     0.040 C 
ATOM      2  C   UNL     1       0.894   0.231  -0.035  1.00  0.00     0.051 C 
ATOM      3  C   UNL     1       0.789   1.686  -0.241  1.00  0.00     0.256 C 
ATOM      4  O   UNL     1      -0.270   2.366  -0.192  1.00  0.00    -0.269 OA
ATOM      5  N   UNL     1       2.078   2.270  -0.403  1.00  0.00    -0.321 N 
ATOM      6  C   UNL     1       2.988   1.185  -0.263  1.00  0.00     0.049 A 
ATOM      7  C   UNL     1       4.379   1.261  -0.320  1.00  0.00     0.027 A 
ATOM      8  C   UNL     1       5.117   0.078  -0.151  1.00  0.00     0.002 A 
ATOM      9  C   UNL     1       4.459  -1.149   0.071  1.00  0.00     0.001 A 
ATOM     10  C   UNL     1       3.056  -1.204   0.127  1.00  0.00     0.011 A 
ATOM     11  C   UNL     1       2.339  -0.016  -0.041  1.00  0.00     0.011 A 
ATOM     12  H   UNL     1       2.307   3.281  -0.527  1.00  0.00     0.170 HD
ENDROOT
BRANCH   1  13
ATOM     13  C   UNL     1      -1.511  -0.384   0.112  1.00  0.00     0.042 A 
ATOM     14  C   UNL     1      -4.439   0.817  -1.611  1.00  0.00     0.064 C 
ATOM     15  C   UNL     1      -3.423   0.253  -0.673  1.00  0.00     0.012 A 
ATOM     16  C   UNL     1      -3.705  -0.520   0.437  1.00  0.00     0.026 A 
ATOM     17  N   UNL     1      -2.093   0.315  -0.882  1.00  0.00    -0.359 N 
ATOM     18  C   UNL     1      -2.482  -0.920   0.941  1.00  0.00    -0.026 A 
ATOM     19  H   UNL     1      -1.618   0.756  -1.701  1.00  0.00     0.166 HD
ATOM     20  C   UNL     1      -2.269  -1.859   2.086  1.00  0.00     0.046 C 
ENDBRANCH   1  13
TORSDOF 1
