REMARK SMILES O=P(O)(O)C(NC1CCCCCC1)P(=O)(O)O
REMARK SMILES IDX 7 1 6 2 5 4 2 5 1 6 3 7 4 9 14 11 15 12 16 13 17 15 8 17
REMARK SMILES IDX 9 18 10 19 11 20 13 22 12 23
REMARK H PARENT 6 3 3 8 4 10 16 14 17 16
REMARK Flexibility Score: 80.00
ROOT
ATOM      1  C   UNL     1      -0.694  -0.148  -0.683  1.00  0.00     0.055 C 
ENDROOT
BRANCH   1   2
ATOM      2  N   UNL     1       0.613  -0.249  -1.374  1.00  0.00    -0.291 NA
ATOM      3  H   UNL     1       0.619   0.418  -2.180  1.00  0.00     0.124 HD
BRANCH   2   4
ATOM      4  C   UNL     1       1.813  -0.091  -0.520  1.00  0.00     0.286 C 
BRANCH   4   5
ATOM      5  P   UNL     1       2.892   1.272  -1.117  1.00  0.00     0.354 P 
ATOM      6  O   UNL     1       3.435   0.932  -2.487  1.00  0.00    -0.258 OA
BRANCH   5   7
ATOM      7  O   UNL     1       2.031   2.727  -1.201  1.00  0.00    -0.323 OA
ATOM      8  H   UNL     1       1.570   2.706  -2.078  1.00  0.00     0.221 HD
ENDBRANCH   5   7
BRANCH   5   9
ATOM      9  O   UNL     1       4.186   1.479  -0.047  1.00  0.00    -0.323 OA
ATOM     10  H   UNL     1       3.763   1.707   0.819  1.00  0.00     0.221 HD
ENDBRANCH   5   9
ENDBRANCH   4   5
BRANCH   4  11
ATOM     11  P   UNL     1       2.763  -1.652  -0.533  1.00  0.00     0.354 P 
ATOM     12  O   UNL     1       2.996  -2.090  -1.961  1.00  0.00    -0.258 OA
BRANCH  11  13
ATOM     13  O   UNL     1       4.252  -1.440   0.247  1.00  0.00    -0.323 OA
ATOM     14  H   UNL     1       4.883  -1.167  -0.467  1.00  0.00     0.221 HD
ENDBRANCH  11  13
BRANCH  11  15
ATOM     15  O   UNL     1       1.905  -2.863   0.278  1.00  0.00    -0.323 OA
ATOM     16  H   UNL     1       1.922  -2.590   1.230  1.00  0.00     0.221 HD
ENDBRANCH  11  15
ENDBRANCH   4  11
ENDBRANCH   2   4
ENDBRANCH   1   2
BRANCH   1  17
ATOM     17  C   UNL     1      -0.869   1.212   0.041  1.00  0.00     0.019 C 
BRANCH  17  18
ATOM     18  C   UNL     1      -2.315   1.739   0.075  1.00  0.00     0.002 C 
BRANCH  18  19
ATOM     19  C   UNL     1      -3.417   0.702   0.356  1.00  0.00     0.000 C 
BRANCH  19  20
ATOM     20  C   UNL     1      -3.023  -0.391   1.362  1.00  0.00     0.000 CG0
ATOM     21  G   UNL     1      -2.352  -1.591   0.677  1.00  0.00     0.000 G0
ENDBRANCH  19  20
ENDBRANCH  18  19
ENDBRANCH  17  18
ENDBRANCH   1  17
BRANCH   1  22
ATOM     22  C   UNL     1      -0.891  -1.342   0.278  1.00  0.00     0.019 C 
BRANCH  22  23
ATOM     23  C   UNL     1      -2.352  -1.591   0.677  1.00  0.00     0.002 CG0
ATOM     24  G   UNL     1      -3.023  -0.391   1.362  1.00  0.00     0.000 G0
ENDBRANCH  22  23
ENDBRANCH   1  22
TORSDOF 8
