REMARK SMILES CC(C)C(=O)Oc1ccc(CO)cc1[C@H](CCN(C(C)C)C(C)C)c1ccccc1
REMARK SMILES IDX 15 1 16 2 17 3 18 4 19 5 20 6 21 7 22 8 23 9 24 10 25 11
REMARK SMILES IDX 26 12 30 13 27 14 29 15 28 16 14 17 7 18 13 19 8 20 10 21
REMARK SMILES IDX 9 22 6 23 4 24 5 25 2 26 1 27 3 28 11 29 12 30
REMARK H PARENT 12 31
REMARK Flexibility Score: inf
ROOT
ATOM      1  C   UNL     1       0.500  -0.528  -1.051  1.00  0.00     0.054 C 
ENDROOT
BRANCH   1   2
ATOM      2  C   UNL     1       0.705   1.004  -0.918  1.00  0.00     0.029 C 
BRANCH   2   3
ATOM      3  C   UNL     1       0.959   1.487   0.527  1.00  0.00     0.086 C 
BRANCH   3   4
ATOM      4  N   UNL     1       2.001   0.700   1.234  1.00  0.00    -0.299 NA
BRANCH   4   5
ATOM      5  C   UNL     1       3.385   0.916   0.721  1.00  0.00     0.050 C 
ATOM      6  C   UNL     1       4.077   2.164   1.295  1.00  0.00     0.024 C 
ATOM      7  C   UNL     1       4.242  -0.341   0.933  1.00  0.00     0.024 C 
ENDBRANCH   4   5
BRANCH   4   8
ATOM      8  C   UNL     1       1.864   0.665   2.721  1.00  0.00     0.050 C 
ATOM      9  C   UNL     1       1.401   1.998   3.351  1.00  0.00     0.024 C 
ATOM     10  C   UNL     1       0.923  -0.472   3.127  1.00  0.00     0.024 C 
ENDBRANCH   4   8
ENDBRANCH   3   4
ENDBRANCH   2   3
ENDBRANCH   1   2
BRANCH   1  11
ATOM     11  C   UNL     1       0.261  -0.965  -2.487  1.00  0.00    -0.040 A 
ATOM     12  C   UNL     1      -0.721  -0.358  -3.297  1.00  0.00     0.004 A 
ATOM     13  C   UNL     1       0.995  -2.047  -3.012  1.00  0.00     0.004 A 
ATOM     14  C   UNL     1      -0.936  -0.804  -4.605  1.00  0.00     0.000 A 
ATOM     15  C   UNL     1       0.775  -2.488  -4.319  1.00  0.00     0.000 A 
ATOM     16  C   UNL     1      -0.188  -1.866  -5.116  1.00  0.00     0.000 A 
ENDBRANCH   1  11
BRANCH   1  17
ATOM     17  C   UNL     1      -0.549  -1.145  -0.129  1.00  0.00     0.003 A 
ATOM     18  C   UNL     1      -1.833  -0.581   0.083  1.00  0.00     0.134 A 
ATOM     19  C   UNL     1      -0.233  -2.367   0.498  1.00  0.00     0.014 A 
ATOM     20  C   UNL     1      -2.742  -1.230   0.939  1.00  0.00     0.048 A 
ATOM     21  C   UNL     1      -1.149  -3.007   1.344  1.00  0.00    -0.022 A 
ATOM     22  C   UNL     1      -2.397  -2.421   1.575  1.00  0.00     0.010 A 
BRANCH  18  23
ATOM     23  O   UNL     1      -2.210   0.590  -0.587  1.00  0.00    -0.426 OA
BRANCH  23  24
ATOM     24  C   UNL     1      -3.030   1.591  -0.049  1.00  0.00     0.313 C 
ATOM     25  O   UNL     1      -3.215   1.673   1.197  1.00  0.00    -0.252 OA
BRANCH  24  26
ATOM     26  C   UNL     1      -3.646   2.617  -0.958  1.00  0.00     0.093 C 
ATOM     27  C   UNL     1      -2.559   3.456  -1.637  1.00  0.00     0.019 C 
ATOM     28  C   UNL     1      -4.539   1.934  -1.999  1.00  0.00     0.019 C 
ENDBRANCH  24  26
ENDBRANCH  23  24
ENDBRANCH  18  23
BRANCH  21  29
ATOM     29  C   UNL     1      -0.771  -4.279   2.047  1.00  0.00     0.191 C 
BRANCH  29  30
ATOM     30  O   UNL     1      -0.230  -3.972   3.301  1.00  0.00    -0.392 OA
ATOM     31  H   UNL     1      -0.001  -4.841   3.722  1.00  0.00     0.211 HD
ENDBRANCH  29  30
ENDBRANCH  21  29
ENDBRANCH   1  17
TORSDOF 12
