REMARK SMILES C[C@@H](CC1(c2nn[nH]n2)c2ccc(C(=O)N(C)C)cc2CCc2cc(C(=O)N(C)C)ccc21)NCC(=O)N1CCC[C@H]1C#N
REMARK SMILES IDX 2 1 1 2 3 3 4 4 5 5 9 6 6 7 8 8 7 9 33 11 32 12 23 13 31 14
REMARK SMILES IDX 24 15 25 16 22 17 26 19 27 20 28 21 29 22 30 23 10 24 20 25
REMARK SMILES IDX 11 26 19 27 12 28 13 29 21 30 14 32 15 33 16 34 17 35 18 36
REMARK SMILES IDX 34 37 35 39 36 40 37 41 38 42 39 43 42 44 40 45 41 46 43 47
REMARK SMILES IDX 44 48
REMARK H PARENT 8 10 34 38
REMARK Flexibility Score: 90.00
ROOT
ATOM      1  C   UNL     1       1.892  -0.405  -0.174  1.00  0.00     0.052 C 
ATOM      2  C   UNL     1       2.512  -0.233   1.220  1.00  0.00     0.024 C 
ENDROOT
BRANCH   1   3
ATOM      3  C   UNL     1       0.576  -1.250  -0.134  1.00  0.00     0.043 C 
BRANCH   3   4
ATOM      4  C   UNL     1      -0.735  -0.705   0.575  1.00  0.00     0.086 C 
BRANCH   4   5
ATOM      5  C   UNL     1      -0.612  -0.765   2.103  1.00  0.00     0.189 A 
ATOM      6  N   UNL     1       0.224  -1.577   2.785  1.00  0.00    -0.138 NA
ATOM      7  N   UNL     1      -1.486  -0.171   2.945  1.00  0.00    -0.112 NA
ATOM      8  N   UNL     1      -0.130  -1.427   4.049  1.00  0.00    -0.177 N 
ATOM      9  N   UNL     1      -1.147  -0.589   4.152  1.00  0.00    -0.050 NA
ATOM     10  H   UNL     1       0.323  -1.916   4.853  1.00  0.00     0.216 HD
ENDBRANCH   4   5
BRANCH   4  11
ATOM     11  C   UNL     1      -0.952   0.786   0.145  1.00  0.00    -0.026 A 
ATOM     12  C   UNL     1      -0.456   1.841   0.965  1.00  0.00     0.006 A 
ATOM     13  C   UNL     1      -1.403   1.154  -1.151  1.00  0.00    -0.042 A 
ATOM     14  C   UNL     1      -0.444   3.169   0.538  1.00  0.00     0.014 A 
ATOM     15  C   UNL     1      -1.364   2.496  -1.572  1.00  0.00     0.018 A 
ATOM     16  C   UNL     1      -0.901   3.507  -0.732  1.00  0.00     0.040 A 
BRANCH  13  17
ATOM     17  C   UNL     1      -2.102   0.177  -2.030  1.00  0.00     0.040 CG0
ATOM     18  G   UNL     1      -3.356  -0.274  -1.304  1.00  0.00     0.000 G0
ENDBRANCH  13  17
BRANCH  16  19
ATOM     19  C   UNL     1      -0.860   4.908  -1.209  1.00  0.00     0.253 C 
ATOM     20  O   UNL     1      -0.485   5.133  -2.391  1.00  0.00    -0.269 OA
ATOM     21  N   UNL     1      -1.263   6.013  -0.376  1.00  0.00    -0.345 N 
ATOM     22  C   UNL     1      -2.245   5.826   0.696  1.00  0.00     0.146 C 
ATOM     23  C   UNL     1      -0.804   7.361  -0.713  1.00  0.00     0.146 C 
ENDBRANCH  16  19
ENDBRANCH   4  11
BRANCH   4  24
ATOM     24  C   UNL     1      -1.887  -1.732   0.267  1.00  0.00    -0.026 A 
ATOM     25  C   UNL     1      -3.095  -1.493  -0.471  1.00  0.00    -0.042 A 
ATOM     26  C   UNL     1      -1.720  -3.050   0.782  1.00  0.00     0.006 A 
ATOM     27  C   UNL     1      -4.109  -2.473  -0.501  1.00  0.00     0.018 A 
ATOM     28  C   UNL     1      -2.710  -4.024   0.676  1.00  0.00     0.014 A 
ATOM     29  C   UNL     1      -3.931  -3.731   0.082  1.00  0.00     0.040 A 
BRANCH  25  30
ATOM     30  C   UNL     1      -3.356  -0.274  -1.304  1.00  0.00     0.040 CG0
ATOM     31  G   UNL     1      -2.102   0.177  -2.030  1.00  0.00     0.000 G0
ENDBRANCH  25  30
BRANCH  29  32
ATOM     32  C   UNL     1      -4.993  -4.762  -0.017  1.00  0.00     0.253 C 
ATOM     33  O   UNL     1      -5.748  -4.769  -1.028  1.00  0.00    -0.269 OA
ATOM     34  N   UNL     1      -5.183  -5.753   1.005  1.00  0.00    -0.345 N 
ATOM     35  C   UNL     1      -5.166  -5.364   2.420  1.00  0.00     0.146 C 
ATOM     36  C   UNL     1      -5.578  -7.107   0.609  1.00  0.00     0.146 C 
ENDBRANCH  29  32
ENDBRANCH   4  24
ENDBRANCH   3   4
ENDBRANCH   1   3
BRANCH   1  37
ATOM     37  N   UNL     1       1.685   0.883  -0.868  1.00  0.00    -0.306 NA
ATOM     38  H   UNL     1       1.264   0.687  -1.804  1.00  0.00     0.123 HD
BRANCH  37  39
ATOM     39  C   UNL     1       2.904   1.679  -1.086  1.00  0.00     0.182 C 
BRANCH  39  40
ATOM     40  C   UNL     1       3.857   1.012  -2.035  1.00  0.00     0.237 C 
ATOM     41  O   UNL     1       3.532   0.861  -3.239  1.00  0.00    -0.273 OA
BRANCH  40  42
ATOM     42  N   UNL     1       5.178   0.666  -1.608  1.00  0.00    -0.326 N 
ATOM     43  C   UNL     1       5.607  -0.701  -1.385  1.00  0.00     0.121 C 
ATOM     44  C   UNL     1       6.228   1.648  -1.388  1.00  0.00     0.189 C 
ATOM     45  C   UNL     1       7.102  -0.613  -1.090  1.00  0.00     0.025 C 
ATOM     46  C   UNL     1       7.383   0.856  -0.770  1.00  0.00     0.043 C 
BRANCH  44  47
ATOM     47  C   UNL     1       6.624   2.252  -2.670  1.00  0.00     0.087 C 
ATOM     48  N   UNL     1       6.937   2.729  -3.678  1.00  0.00    -0.196 NA
ENDBRANCH  44  47
ENDBRANCH  40  42
ENDBRANCH  39  40
ENDBRANCH  37  39
ENDBRANCH   1  37
TORSDOF 10
