REMARK SMILES Cc1c(C(=O)NN2CCCCC2)nn(-c2ccc(Cl)cc2Cl)c1-c1ccc(Cl)cc1
REMARK SMILES IDX 1 1 2 2 23 3 14 4 13 5 3 6 24 7 25 8 30 9 26 10 29 11 27 12
REMARK SMILES IDX 28 13 4 14 5 15 6 16 7 18 8 19 12 20 9 21 11 22 10 23 15 24
REMARK SMILES IDX 21 25 16 26 22 27 20 28 17 29 18 30 19 31
REMARK H PARENT 6 17
REMARK Flexibility Score: inf
ROOT
ATOM      1  C   UNL     1       0.437  -1.768  -0.119  1.00  0.00     0.049 C 
ATOM      2  C   UNL     1      -0.234  -0.435  -0.273  1.00  0.00     0.009 A 
ATOM      3  C   UNL     1      -1.559  -0.128   0.001  1.00  0.00     0.078 A 
ATOM      4  N   UNL     1      -1.786   1.149  -0.387  1.00  0.00    -0.230 N 
ATOM      5  N   UNL     1      -0.680   1.666  -0.897  1.00  0.00    -0.162 NA
ATOM      6  C   UNL     1       0.289   0.731  -0.824  1.00  0.00     0.155 A 
ENDROOT
BRANCH   3   7
ATOM      7  C   UNL     1      -2.579  -1.050   0.550  1.00  0.00     0.001 A 
ATOM      8  C   UNL     1      -2.305  -1.806   1.702  1.00  0.00     0.012 A 
ATOM      9  C   UNL     1      -3.835  -1.172  -0.067  1.00  0.00     0.012 A 
ATOM     10  C   UNL     1      -3.273  -2.664   2.231  1.00  0.00     0.021 A 
ATOM     11  C   UNL     1      -4.802  -2.031   0.464  1.00  0.00     0.021 A 
ATOM     12  C   UNL     1      -4.523  -2.776   1.613  1.00  0.00     0.041 A 
ATOM     13  Cl  UNL     1      -5.738  -3.852   2.280  1.00  0.00    -0.084 Cl
ENDBRANCH   3   7
BRANCH   6  14
ATOM     14  C   UNL     1       1.660   0.969  -1.310  1.00  0.00     0.286 C 
ATOM     15  O   UNL     1       1.848   1.827  -2.214  1.00  0.00    -0.266 OA
ATOM     16  N   UNL     1       2.779   0.280  -0.745  1.00  0.00    -0.283 N 
ATOM     17  H   UNL     1       2.660  -0.248   0.148  1.00  0.00     0.185 HD
BRANCH  16  18
ATOM     18  N   UNL     1       4.056   0.402  -1.331  1.00  0.00    -0.221 NA
ATOM     19  C   UNL     1       4.922   1.222  -0.463  1.00  0.00     0.108 C 
ATOM     20  C   UNL     1       4.603  -0.941  -1.643  1.00  0.00     0.108 C 
ATOM     21  C   UNL     1       5.252   0.533   0.877  1.00  0.00     0.018 C 
ATOM     22  C   UNL     1       5.718  -1.407  -0.688  1.00  0.00     0.018 C 
ATOM     23  C   UNL     1       5.413  -0.992   0.749  1.00  0.00     0.003 C 
ENDBRANCH  16  18
ENDBRANCH   6  14
BRANCH   4  24
ATOM     24  C   UNL     1      -3.014   1.883  -0.294  1.00  0.00     0.084 A 
ATOM     25  C   UNL     1      -3.615   2.152   0.954  1.00  0.00     0.068 A 
ATOM     26  C   UNL     1      -3.621   2.355  -1.467  1.00  0.00     0.031 A 
ATOM     27  Cl  UNL     1      -2.845   1.682   2.464  1.00  0.00    -0.082 Cl
ATOM     28  C   UNL     1      -4.826   2.852   1.007  1.00  0.00     0.043 A 
ATOM     29  C   UNL     1      -4.829   3.054  -1.406  1.00  0.00     0.023 A 
ATOM     30  C   UNL     1      -5.435   3.298  -0.170  1.00  0.00     0.042 A 
ATOM     31  Cl  UNL     1      -6.952   4.175  -0.095  1.00  0.00    -0.084 Cl
ENDBRANCH   4  24
TORSDOF 4
