REMARK SMILES CNC(=O)c1cnn(-c2nc(N)c3ncn([C@@H]4O[C@H](CO)[C@@H](O)[C@H]4O)c3n2)c1
REMARK SMILES IDX 9 1 27 2 26 3 13 4 14 5 15 6 16 7 11 8 10 9 8 10 5 11 28 12
REMARK SMILES IDX 6 13 7 14 3 15 1 16 2 17 4 19 12 20 17 23 18 24 24 25 19 26
REMARK SMILES IDX 22 27 25 28 20 30 21 31 23 33
REMARK H PARENT 2 18 12 21 12 22 25 29 21 32 23 34
REMARK Flexibility Score: inf
ROOT
ATOM      1  C   UNL     1       0.989   0.447  -0.717  1.00  0.00     0.254 A 
ATOM      2  N   UNL     1      -0.182  -0.249  -0.854  1.00  0.00    -0.191 NA
ATOM      3  C   UNL     1      -0.368  -0.973  -1.984  1.00  0.00     0.169 A 
ATOM      4  C   UNL     1       0.557  -1.039  -2.967  1.00  0.00     0.150 A 
ATOM      5  N   UNL     1       0.136  -1.850  -3.957  1.00  0.00    -0.231 NA
ATOM      6  C   UNL     1      -1.085  -2.258  -3.513  1.00  0.00     0.204 A 
ATOM      7  N   UNL     1      -1.425  -1.728  -2.310  1.00  0.00    -0.285 N 
ATOM      8  C   UNL     1       1.751  -0.340  -2.844  1.00  0.00     0.157 A 
ATOM      9  N   UNL     1       1.939   0.396  -1.709  1.00  0.00    -0.192 NA
ENDROOT
BRANCH   1  10
ATOM     10  N   UNL     1       1.220   1.222   0.465  1.00  0.00    -0.205 N 
ATOM     11  C   UNL     1       2.149   2.527   1.983  1.00  0.00     0.078 A 
ATOM     12  C   UNL     1       2.324   1.943   0.743  1.00  0.00     0.132 A 
ATOM     13  C   UNL     1       0.900   2.109   2.405  1.00  0.00     0.149 A 
ATOM     14  N   UNL     1       0.355   1.316   1.463  1.00  0.00    -0.173 NA
BRANCH  11  15
ATOM     15  C   UNL     1       3.081   3.401   2.719  1.00  0.00     0.254 C 
ATOM     16  C   UNL     1       5.261   4.665   2.862  1.00  0.00     0.143 C 
ATOM     17  N   UNL     1       4.323   3.819   2.135  1.00  0.00    -0.355 N 
ATOM     18  H   UNL     1       4.572   3.528   1.164  1.00  0.00     0.163 HD
ATOM     19  O   UNL     1       2.774   3.784   3.881  1.00  0.00    -0.269 OA
ENDBRANCH  11  15
ENDBRANCH   1  10
BRANCH   8  20
ATOM     20  N   UNL     1       2.757  -0.385  -3.856  1.00  0.00    -0.382 N 
ATOM     21  H   UNL     1       3.646   0.150  -3.737  1.00  0.00     0.158 HD
ATOM     22  H   UNL     1       2.623  -0.950  -4.724  1.00  0.00     0.158 HD
ENDBRANCH   8  20
BRANCH   7  23
ATOM     23  C   UNL     1      -2.618  -2.032  -1.517  1.00  0.00     0.253 C 
ATOM     24  O   UNL     1      -3.048  -0.885  -0.820  1.00  0.00    -0.347 OA
ATOM     25  C   UNL     1      -2.325  -3.122  -0.495  1.00  0.00     0.195 C 
ATOM     26  C   UNL     1      -3.515  -1.300   0.451  1.00  0.00     0.178 C 
ATOM     27  C   UNL     1      -3.312  -2.816   0.605  1.00  0.00     0.179 C 
BRANCH  25  28
ATOM     28  O   UNL     1      -2.446  -4.427  -1.014  1.00  0.00    -0.386 OA
ATOM     29  H   UNL     1      -3.304  -4.496  -1.507  1.00  0.00     0.211 HD
ENDBRANCH  25  28
BRANCH  26  30
ATOM     30  C   UNL     1      -2.768  -0.523   1.545  1.00  0.00     0.191 C 
BRANCH  30  31
ATOM     31  O   UNL     1      -2.914   0.859   1.352  1.00  0.00    -0.394 OA
ATOM     32  H   UNL     1      -3.833   1.091   1.648  1.00  0.00     0.210 HD
ENDBRANCH  30  31
ENDBRANCH  26  30
BRANCH  27  33
ATOM     33  O   UNL     1      -4.526  -3.491   0.393  1.00  0.00    -0.387 OA
ATOM     34  H   UNL     1      -5.042  -3.415   1.237  1.00  0.00     0.211 HD
ENDBRANCH  27  33
ENDBRANCH   7  23
TORSDOF 8
