REMARK SMILES COc1ccc2c(c1OC)C(=O)O[C@@H]2[C@H]1c2c(cc3c(c2OC)OCO3)CCN1C
REMARK SMILES IDX 15 1 29 2 30 3 28 4 27 5 17 6 18 7 19 8 20 9 24 10 25 11
REMARK SMILES IDX 26 12 21 13 16 14 14 15 13 16 6 17 11 18 7 19 5 20 12 21
REMARK SMILES IDX 8 22 4 23 3 24 9 25 10 26 2 27 1 28 22 29 23 30
REMARK H PARENT
REMARK Flexibility Score: inf
ROOT
ATOM      1  C   UNL     1       1.110   0.703   1.723  1.00  0.00     0.137 C 
ATOM      2  N   UNL     1       1.168   2.174   1.483  1.00  0.00    -0.295 NA
ATOM      3  C   UNL     1       0.470   2.633   0.263  1.00  0.00     0.106 C 
ATOM      4  C   UNL     1       2.567   2.637   1.494  1.00  0.00     0.089 C 
ATOM      5  C   UNL     1       3.355   2.072   0.309  1.00  0.00     0.051 C 
ATOM      6  C   UNL     1       3.098   0.602   0.104  1.00  0.00    -0.034 A 
ATOM      7  C   UNL     1       3.959  -0.086  -0.772  1.00  0.00     0.055 A 
ATOM      8  C   UNL     1       3.825  -1.459  -0.884  1.00  0.00     0.169 A 
ATOM      9  C   UNL     1       2.909  -2.153  -0.168  1.00  0.00     0.207 A 
ATOM     10  O   UNL     1       3.055  -3.501  -0.449  1.00  0.00    -0.450 OA
ATOM     11  C   UNL     1       4.116  -3.655  -1.399  1.00  0.00     0.468 C 
ATOM     12  O   UNL     1       4.580  -2.326  -1.651  1.00  0.00    -0.453 OA
ATOM     13  C   UNL     1       2.010  -1.523   0.709  1.00  0.00     0.170 A 
ATOM     14  C   UNL     1       2.037  -0.092   0.779  1.00  0.00     0.023 A 
ENDROOT
BRANCH   1  15
ATOM     15  C   UNL     1      -0.361   0.196   1.897  1.00  0.00     0.230 C 
ATOM     16  O   UNL     1      -1.091   1.082   2.755  1.00  0.00    -0.452 OA
ATOM     17  C   UNL     1      -1.235   0.128   0.658  1.00  0.00     0.013 A 
ATOM     18  C   UNL     1      -2.313   1.403   2.187  1.00  0.00     0.343 C 
ATOM     19  C   UNL     1      -2.413   0.807   0.876  1.00  0.00     0.112 A 
ATOM     20  C   UNL     1      -1.030  -0.547  -0.544  1.00  0.00     0.012 A 
ATOM     21  O   UNL     1      -3.171   2.148   2.731  1.00  0.00    -0.246 OA
ATOM     22  C   UNL     1      -3.440   0.876  -0.071  1.00  0.00     0.175 A 
ATOM     23  C   UNL     1      -2.026  -0.493  -1.530  1.00  0.00     0.051 A 
ATOM     24  C   UNL     1      -3.240   0.208  -1.310  1.00  0.00     0.161 A 
BRANCH  22  25
ATOM     25  O   UNL     1      -4.594   1.610   0.260  1.00  0.00    -0.492 OA
ATOM     26  C   UNL     1      -5.819   1.616  -0.457  1.00  0.00     0.278 C 
ENDBRANCH  22  25
BRANCH  24  27
ATOM     27  O   UNL     1      -4.234   0.255  -2.300  1.00  0.00    -0.493 OA
ATOM     28  C   UNL     1      -4.064  -0.185  -3.643  1.00  0.00     0.278 C 
ENDBRANCH  24  27
ENDBRANCH   1  15
BRANCH  13  29
ATOM     29  O   UNL     1       1.120  -2.262   1.504  1.00  0.00    -0.492 OA
ATOM     30  C   UNL     1       0.939  -3.674   1.451  1.00  0.00     0.278 C 
ENDBRANCH  13  29
TORSDOF 4
