REMARK SMILES NC(=O)C[S@@](=O)C(c1ccccc1)c1ccccc1
REMARK SMILES IDX 5 1 6 2 4 3 2 4 1 5 3 8 7 9 8 10 9 11 13 12 10 13 12 14
REMARK SMILES IDX 11 15 14 16 15 17 19 18 16 19 18 20 17 21
REMARK H PARENT 1 6 1 7
REMARK Flexibility Score: inf
ROOT
ATOM      1  S   UNL     1       1.547  -0.755  -0.397  1.00  0.00     0.043 S 
ATOM      2  O   UNL     1       1.894  -2.127   0.168  1.00  0.00    -0.258 OA
ENDROOT
BRANCH   1   3
ATOM      3  C   UNL     1       2.811   0.329   0.302  1.00  0.00     0.205 C 
BRANCH   3   4
ATOM      4  C   UNL     1       4.130   0.052  -0.345  1.00  0.00     0.230 C 
ATOM      5  N   UNL     1       4.998  -0.950   0.182  1.00  0.00    -0.369 N 
ATOM      6  H   UNL     1       5.912  -1.152  -0.281  1.00  0.00     0.159 HD
ATOM      7  H   UNL     1       4.730  -1.495   1.031  1.00  0.00     0.159 HD
ATOM      8  O   UNL     1       4.459   0.680  -1.387  1.00  0.00    -0.274 OA
ENDBRANCH   3   4
ENDBRANCH   1   3
BRANCH   1   9
ATOM      9  C   UNL     1       0.019  -0.302   0.480  1.00  0.00     0.140 C 
BRANCH   9  10
ATOM     10  C   UNL     1      -0.398   1.124   0.189  1.00  0.00    -0.028 A 
ATOM     11  C   UNL     1      -0.821   1.954   1.243  1.00  0.00     0.005 A 
ATOM     12  C   UNL     1      -0.426   1.628  -1.127  1.00  0.00     0.005 A 
ATOM     13  C   UNL     1      -1.238   3.265   0.990  1.00  0.00     0.000 A 
ATOM     14  C   UNL     1      -0.843   2.939  -1.374  1.00  0.00     0.000 A 
ATOM     15  C   UNL     1      -1.247   3.757  -0.317  1.00  0.00     0.000 A 
ENDBRANCH   9  10
BRANCH   9  16
ATOM     16  C   UNL     1      -1.115  -1.257   0.169  1.00  0.00    -0.028 A 
ATOM     17  C   UNL     1      -1.407  -1.645  -1.154  1.00  0.00     0.005 A 
ATOM     18  C   UNL     1      -1.941  -1.718   1.210  1.00  0.00     0.005 A 
ATOM     19  C   UNL     1      -2.483  -2.497  -1.420  1.00  0.00     0.000 A 
ATOM     20  C   UNL     1      -3.016  -2.570   0.938  1.00  0.00     0.000 A 
ATOM     21  C   UNL     1      -3.286  -2.961  -0.375  1.00  0.00     0.000 A 
ENDBRANCH   9  16
ENDBRANCH   1   9
TORSDOF 5
