REMARK SMILES COc1cccc2c1C(=O)c1c(O)c3c(c(O)c1C2=O)C[C@@](O)(/C(CO)=N/NC(=O)CCCCCN1C(=O)C=CC1=O)C[C@@H]3O[C@H]1C[C@H](N)[C@H](O)[C@H](C)O1
REMARK SMILES IDX 28 1 29 2 30 3 27 5 24 6 22 7 3 8 8 9 4 10 9 11 7 12 5 13
REMARK SMILES IDX 10 14 11 15 19 16 6 17 12 18 18 19 20 20 14 21 16 22 15 23
REMARK SMILES IDX 44 24 21 25 43 26 2 27 1 28 13 29 17 31 45 33 46 34 47 35
REMARK SMILES IDX 54 36 48 37 52 38 50 39 53 40 49 41 51 44 23 46 25 48 26 49
REMARK SMILES IDX 31 51 32 52 33 53 34 54 35 55 36 56 37 57 41 58 38 59 39 60
REMARK SMILES IDX 40 61 42 62
REMARK H PARENT 28 4 13 30 17 32 49 42 49 43 51 45 23 47 26 50
REMARK Flexibility Score: inf
ROOT
ATOM      1  N   UNL     1       3.527   2.359   0.713  1.00  0.00    -0.247 N 
ATOM      2  C   UNL     1       4.759   2.790   1.299  1.00  0.00     0.240 C 
ATOM      3  O   UNL     1       4.795   3.130   2.517  1.00  0.00    -0.273 OA
ATOM      4  H   UNL     1       3.520   2.059  -0.286  1.00  0.00     0.193 HD
ENDROOT
BRANCH   1   5
ATOM      5  N   UNL     1       2.363   2.287   1.500  1.00  0.00    -0.177 NA
ATOM      6  C   UNL     1       1.345   1.505   1.254  1.00  0.00     0.096 C 
BRANCH   6   7
ATOM      7  C   UNL     1       0.154   1.556   2.230  1.00  0.00     0.114 C 
ATOM      8  C   UNL     1      -4.133  -5.424  -1.591  1.00  0.00     0.130 A 
ATOM      9  C   UNL     1      -3.547  -4.558  -0.634  1.00  0.00     0.076 A 
ATOM     10  C   UNL     1      -4.435  -6.752  -1.230  1.00  0.00     0.047 A 
ATOM     11  C   UNL     1      -3.204  -3.148  -0.965  1.00  0.00     0.202 C 
ATOM     12  C   UNL     1      -3.265  -5.043   0.660  1.00  0.00     0.038 A 
ATOM     13  C   UNL     1      -4.159  -7.216   0.052  1.00  0.00     0.005 A 
ATOM     14  O   UNL     1      -3.232  -2.767  -2.165  1.00  0.00    -0.288 OA
ATOM     15  C   UNL     1      -2.702  -2.225   0.094  1.00  0.00     0.080 A 
ATOM     16  C   UNL     1      -2.646  -4.155   1.668  1.00  0.00     0.198 C 
ATOM     17  C   UNL     1      -3.577  -6.372   0.992  1.00  0.00     0.013 A 
ATOM     18  C   UNL     1      -2.622  -0.826  -0.104  1.00  0.00     0.133 A 
ATOM     19  C   UNL     1      -2.217  -2.779   1.296  1.00  0.00     0.080 A 
ATOM     20  O   UNL     1      -2.577  -4.543   2.867  1.00  0.00    -0.288 OA
ATOM     21  C   UNL     1      -1.907  -0.017   0.805  1.00  0.00     0.031 A 
ATOM     22  C   UNL     1      -1.382  -1.997   2.131  1.00  0.00     0.131 A 
ATOM     23  C   UNL     1      -1.200  -0.628   1.863  1.00  0.00     0.007 A 
ATOM     24  C   UNL     1      -1.803   1.473   0.520  1.00  0.00     0.159 C 
ATOM     25  C   UNL     1      -0.262   0.159   2.754  1.00  0.00     0.081 C 
ATOM     26  C   UNL     1      -1.066   2.264   1.616  1.00  0.00     0.079 C 
BRANCH   8  27
ATOM     27  O   UNL     1      -4.406  -4.945  -2.884  1.00  0.00    -0.496 OA
ATOM     28  C   UNL     1      -4.922  -5.734  -3.950  1.00  0.00     0.278 C 
ENDBRANCH   8  27
BRANCH  18  29
ATOM     29  O   UNL     1      -3.264  -0.204  -1.182  1.00  0.00    -0.507 OA
ATOM     30  H   UNL     1      -4.031  -0.621  -1.690  1.00  0.00     0.293 HD
ENDBRANCH  18  29
BRANCH  22  31
ATOM     31  O   UNL     1      -0.680  -2.556   3.205  1.00  0.00    -0.507 OA
ATOM     32  H   UNL     1      -0.511  -3.549   3.307  1.00  0.00     0.293 HD
ENDBRANCH  22  31
BRANCH  24  33
ATOM     33  O   UNL     1      -3.124   1.984   0.403  1.00  0.00    -0.344 OA
BRANCH  33  34
ATOM     34  C   UNL     1      -3.239   2.993  -0.592  1.00  0.00     0.252 C 
ATOM     35  C   UNL     1      -4.682   3.031  -1.128  1.00  0.00     0.083 C 
ATOM     36  O   UNL     1      -2.842   4.264  -0.091  1.00  0.00    -0.347 OA
ATOM     37  C   UNL     1      -5.651   3.542  -0.053  1.00  0.00     0.087 C 
ATOM     38  C   UNL     1      -3.672   4.686   0.982  1.00  0.00     0.148 C 
ATOM     39  C   UNL     1      -5.131   4.878   0.513  1.00  0.00     0.160 C 
ATOM     40  C   UNL     1      -3.108   5.984   1.561  1.00  0.00     0.041 C 
BRANCH  37  41
ATOM     41  N   UNL     1      -6.992   3.706  -0.615  1.00  0.00    -0.325 NA
ATOM     42  H   UNL     1      -7.329   2.771  -0.937  1.00  0.00     0.119 HD
ATOM     43  H   UNL     1      -7.638   3.994   0.156  1.00  0.00     0.119 HD
ENDBRANCH  37  41
BRANCH  39  44
ATOM     44  O   UNL     1      -5.190   5.889  -0.465  1.00  0.00    -0.389 OA
ATOM     45  H   UNL     1      -6.115   6.252  -0.451  1.00  0.00     0.211 HD
ENDBRANCH  39  44
ENDBRANCH  33  34
ENDBRANCH  24  33
BRANCH   7  46
ATOM     46  O   UNL     1       0.525   2.336   3.350  1.00  0.00    -0.383 OA
ATOM     47  H   UNL     1       1.249   1.857   3.837  1.00  0.00     0.211 HD
ENDBRANCH   7  46
ENDBRANCH   6   7
BRANCH   6  48
ATOM     48  C   UNL     1       1.402   0.535   0.086  1.00  0.00     0.212 C 
BRANCH  48  49
ATOM     49  O   UNL     1       2.485  -0.344   0.223  1.00  0.00    -0.390 OA
ATOM     50  H   UNL     1       2.293  -0.906   1.016  1.00  0.00     0.211 HD
ENDBRANCH  48  49
ENDBRANCH   6  48
ENDBRANCH   1   5
BRANCH   2  51
ATOM     51  C   UNL     1       6.029   2.778   0.499  1.00  0.00     0.102 C 
BRANCH  51  52
ATOM     52  C   UNL     1       6.799   1.453   0.654  1.00  0.00     0.010 C 
BRANCH  52  53
ATOM     53  C   UNL     1       6.074   0.216   0.084  1.00  0.00     0.002 C 
BRANCH  53  54
ATOM     54  C   UNL     1       5.865   0.227  -1.446  1.00  0.00     0.022 C 
BRANCH  54  55
ATOM     55  C   UNL     1       7.159   0.106  -2.267  1.00  0.00     0.129 C 
BRANCH  55  56
ATOM     56  N   UNL     1       7.776  -1.210  -2.103  1.00  0.00    -0.275 N 
ATOM     57  C   UNL     1       7.293  -2.456  -2.592  1.00  0.00     0.253 C 
ATOM     58  C   UNL     1       8.749  -1.603  -1.144  1.00  0.00     0.253 C 
ATOM     59  O   UNL     1       6.376  -2.571  -3.449  1.00  0.00    -0.269 OA
ATOM     60  C   UNL     1       7.989  -3.572  -1.955  1.00  0.00     0.077 C 
ATOM     61  C   UNL     1       8.862  -3.061  -1.087  1.00  0.00     0.077 C 
ATOM     62  O   UNL     1       9.404  -0.797  -0.431  1.00  0.00    -0.269 OA
ENDBRANCH  55  56
ENDBRANCH  54  55
ENDBRANCH  53  54
ENDBRANCH  52  53
ENDBRANCH  51  52
ENDBRANCH   2  51
TORSDOF 18
