REMARK SMILES O=C(O)COC(=O)Cc1ccccc1Nc1c(Cl)cccc1Cl
REMARK SMILES IDX 6 1 7 2 5 3 4 4 2 5 1 6 3 7 8 9 9 10 10 11 14 12 11 13 13 14
REMARK SMILES IDX 12 15 15 16 16 18 17 19 22 20 18 21 19 22 21 23 23 24 20 25
REMARK H PARENT 3 8 15 17
REMARK Flexibility Score: inf
ROOT
ATOM      1  C   UNL     1       0.816   1.686  -0.069  1.00  0.00     0.310 C 
ATOM      2  O   UNL     1       0.403   2.677   0.594  1.00  0.00    -0.252 OA
ENDROOT
BRANCH   1   3
ATOM      3  O   UNL     1       2.032   1.074   0.253  1.00  0.00    -0.453 OA
BRANCH   3   4
ATOM      4  C   UNL     1       2.824   1.473   1.365  1.00  0.00     0.355 C 
BRANCH   4   5
ATOM      5  C   UNL     1       4.017   0.583   1.460  1.00  0.00     0.341 C 
ATOM      6  O   UNL     1       5.122   0.953   0.981  1.00  0.00    -0.248 OA
BRANCH   5   7
ATOM      7  O   UNL     1       3.895  -0.676   2.039  1.00  0.00    -0.479 OA
ATOM      8  H   UNL     1       4.690  -1.301   2.096  1.00  0.00     0.296 HD
ENDBRANCH   5   7
ENDBRANCH   4   5
ENDBRANCH   3   4
ENDBRANCH   1   3
BRANCH   1   9
ATOM      9  C   UNL     1       0.023   1.207  -1.246  1.00  0.00     0.160 C 
BRANCH   9  10
ATOM     10  C   UNL     1       0.277  -0.256  -1.540  1.00  0.00    -0.013 A 
ATOM     11  C   UNL     1       0.930  -0.594  -2.741  1.00  0.00     0.006 A 
ATOM     12  C   UNL     1      -0.049  -1.293  -0.621  1.00  0.00     0.042 A 
ATOM     13  C   UNL     1       1.268  -1.918  -3.024  1.00  0.00     0.000 A 
ATOM     14  C   UNL     1       0.329  -2.613  -0.911  1.00  0.00     0.026 A 
ATOM     15  C   UNL     1       0.975  -2.925  -2.107  1.00  0.00     0.002 A 
BRANCH  12  16
ATOM     16  N   UNL     1      -0.707  -1.039   0.632  1.00  0.00    -0.353 N 
ATOM     17  H   UNL     1      -0.332  -1.529   1.476  1.00  0.00     0.167 HD
BRANCH  16  18
ATOM     18  C   UNL     1      -1.904  -0.256   0.795  1.00  0.00     0.076 A 
ATOM     19  C   UNL     1      -2.988  -0.353  -0.112  1.00  0.00     0.066 A 
ATOM     20  C   UNL     1      -2.020   0.601   1.910  1.00  0.00     0.066 A 
ATOM     21  Cl  UNL     1      -3.002  -1.495  -1.451  1.00  0.00    -0.082 Cl
ATOM     22  C   UNL     1      -4.127   0.439   0.076  1.00  0.00     0.023 A 
ATOM     23  C   UNL     1      -3.166   1.384   2.081  1.00  0.00     0.023 A 
ATOM     24  Cl  UNL     1      -0.729   0.732   3.098  1.00  0.00    -0.082 Cl
ATOM     25  C   UNL     1      -4.212   1.309   1.162  1.00  0.00     0.003 A 
ENDBRANCH  16  18
ENDBRANCH  12  16
ENDBRANCH   9  10
ENDBRANCH   1   9
TORSDOF 8
