REMARK SMILES Cc1ccccc1C(=O)Nc1ccc(C(=O)N2CCC[C@@H](O)c3cc(Cl)ccc32)c(C)c1
REMARK SMILES IDX 17 1 15 2 16 3 14 4 11 5 32 6 12 7 30 8 13 9 31 10 10 11
REMARK SMILES IDX 8 12 9 13 7 15 1 16 2 17 3 18 4 19 6 20 5 21 18 22 29 24
REMARK SMILES IDX 23 25 28 26 24 27 27 28 25 29 26 30 21 31 20 32 19 33 22 35
REMARK H PARENT 10 14 22 36
REMARK Flexibility Score: 90.00
ROOT
ATOM      1  N   UNL     1      -2.955  -0.490   0.033  1.00  0.00    -0.308 N 
ENDROOT
BRANCH   1   2
ATOM      2  C   UNL     1      -2.064  -0.455   1.170  1.00  0.00     0.258 C 
ATOM      3  O   UNL     1      -2.536  -0.461   2.340  1.00  0.00    -0.269 OA
BRANCH   2   4
ATOM      4  C   UNL     1      -0.598  -0.390   0.998  1.00  0.00     0.043 A 
ATOM      5  C   UNL     1       2.198  -0.349   0.649  1.00  0.00     0.041 A 
ATOM      6  C   UNL     1       1.552   0.704   1.319  1.00  0.00     0.030 A 
ATOM      7  C   UNL     1       1.441  -1.434   0.191  1.00  0.00     0.027 A 
ATOM      8  C   UNL     1       0.156   0.704   1.481  1.00  0.00    -0.036 A 
ATOM      9  C   UNL     1       0.056  -1.454   0.360  1.00  0.00     0.016 A 
ATOM     10  C   UNL     1      -0.502   1.857   2.194  1.00  0.00     0.045 C 
BRANCH   5  11
ATOM     11  N   UNL     1       3.624  -0.367   0.481  1.00  0.00    -0.322 N 
ATOM     12  C   UNL     1       4.410   0.787   0.136  1.00  0.00     0.255 C 
ATOM     13  O   UNL     1       3.866   1.914  -0.012  1.00  0.00    -0.269 OA
ATOM     14  H   UNL     1       4.106  -1.293   0.545  1.00  0.00     0.170 HD
BRANCH  12  15
ATOM     15  C   UNL     1       5.870   0.667  -0.049  1.00  0.00     0.043 A 
ATOM     16  C   UNL     1       5.607  -1.146  -1.839  1.00  0.00     0.045 C 
ATOM     17  C   UNL     1       6.446  -0.255  -0.960  1.00  0.00    -0.038 A 
ATOM     18  C   UNL     1       7.846  -0.351  -1.047  1.00  0.00     0.004 A 
ATOM     19  C   UNL     1       8.664   0.478  -0.279  1.00  0.00     0.000 A 
ATOM     20  C   UNL     1       6.709   1.510   0.700  1.00  0.00     0.014 A 
ATOM     21  C   UNL     1       8.097   1.414   0.586  1.00  0.00     0.001 A 
ENDBRANCH  12  15
ENDBRANCH   5  11
ENDBRANCH   2   4
ENDBRANCH   1   2
BRANCH   1  22
ATOM     22  C   UNL     1      -2.462  -0.034  -1.286  1.00  0.00     0.126 CG0
ATOM     23  G   UNL     1      -3.549   0.047  -2.375  1.00  0.00     0.000 G0
ENDBRANCH   1  22
BRANCH   1  24
ATOM     24  C   UNL     1      -4.329  -0.883   0.242  1.00  0.00     0.050 A 
ATOM     25  C   UNL     1      -5.388  -0.019  -0.120  1.00  0.00     0.006 A 
ATOM     26  C   UNL     1      -4.618  -2.141   0.794  1.00  0.00     0.028 A 
ATOM     27  C   UNL     1      -6.717  -0.461   0.025  1.00  0.00     0.029 A 
ATOM     28  C   UNL     1      -5.941  -2.554   0.960  1.00  0.00     0.022 A 
ATOM     29  C   UNL     1      -6.990  -1.719   0.569  1.00  0.00     0.041 A 
ATOM     30  Cl  UNL     1      -8.650  -2.253   0.757  1.00  0.00    -0.084 Cl
BRANCH  25  31
ATOM     31  C   UNL     1      -5.060   1.338  -0.713  1.00  0.00     0.146 C 
BRANCH  31  32
ATOM     32  C   UNL     1      -4.554   1.198  -2.160  1.00  0.00     0.038 C 
BRANCH  32  33
ATOM     33  C   UNL     1      -3.549   0.047  -2.375  1.00  0.00     0.025 CG0
ATOM     34  G   UNL     1      -2.462  -0.034  -1.286  1.00  0.00     0.000 G0
ENDBRANCH  32  33
ENDBRANCH  31  32
BRANCH  31  35
ATOM     35  O   UNL     1      -6.170   2.198  -0.694  1.00  0.00    -0.388 OA
ATOM     36  H   UNL     1      -6.301   2.477   0.251  1.00  0.00     0.211 HD
ENDBRANCH  31  35
ENDBRANCH  25  31
ENDBRANCH   1  24
TORSDOF 5
