REMARK SMILES COC[C@@H](c1ccc(C(F)(F)F)cc1)N1CCN(C2(C)CCN(C(=O)c3c(C)ncnc3C)CC2)C[C@@H]1C
REMARK SMILES IDX 15 1 16 2 17 3 18 4 36 5 37 6 38 7 4 8 3 9 2 10 1 11 5 12
REMARK SMILES IDX 6 13 14 14 7 15 13 16 8 17 9 18 10 19 11 20 12 21 19 22
REMARK SMILES IDX 20 23 21 24 35 25 22 26 34 27 23 28 24 29 25 30 26 31 27 32
REMARK SMILES IDX 32 33 28 34 29 35 31 36 33 37 30 38
REMARK H PARENT
REMARK Flexibility Score: inf
ROOT
ATOM      1  N   UNL     1      -2.395  -0.031   0.697  1.00  0.00    -0.289 NA
ATOM      2  C   UNL     1      -1.236   0.295   1.561  1.00  0.00     0.101 C 
ATOM      3  C   UNL     1       0.081  -0.034   0.859  1.00  0.00     0.100 C 
ATOM      4  N   UNL     1       0.143  -1.483   0.564  1.00  0.00    -0.295 NA
ATOM      5  C   UNL     1      -0.984  -1.816  -0.336  1.00  0.00     0.104 C 
ATOM      6  C   UNL     1      -2.338  -1.478   0.326  1.00  0.00     0.068 C 
ATOM      7  C   UNL     1      -3.458  -1.886  -0.653  1.00  0.00     0.026 C 
ENDROOT
BRANCH   1   8
ATOM      8  C   UNL     1      -3.728   0.359   1.278  1.00  0.00     0.113 C 
BRANCH   8   9
ATOM      9  C   UNL     1      -3.723   1.516   2.321  1.00  0.00     0.183 C 
BRANCH   9  10
ATOM     10  O   UNL     1      -3.128   1.121   3.545  1.00  0.00    -0.383 OA
ATOM     11  C   UNL     1      -4.107   0.656   4.448  1.00  0.00     0.194 C 
ENDBRANCH   9  10
ENDBRANCH   8   9
BRANCH   8  12
ATOM     12  C   UNL     1      -4.655   0.791   0.155  1.00  0.00    -0.028 A 
ATOM     13  C   UNL     1      -6.001   0.388   0.149  1.00  0.00     0.006 A 
ATOM     14  C   UNL     1      -4.200   1.664  -0.849  1.00  0.00     0.006 A 
ATOM     15  C   UNL     1      -6.861   0.807  -0.868  1.00  0.00     0.013 A 
ATOM     16  C   UNL     1      -5.062   2.086  -1.864  1.00  0.00     0.013 A 
ATOM     17  C   UNL     1      -6.394   1.640  -1.898  1.00  0.00     0.056 A 
BRANCH  17  18
ATOM     18  C   UNL     1      -7.340   2.129  -2.966  1.00  0.00     0.416 C 
ATOM     19  F   UNL     1      -6.653   2.452  -4.124  1.00  0.00    -0.166 F 
ATOM     20  F   UNL     1      -8.270   1.152  -3.273  1.00  0.00    -0.166 F 
ATOM     21  F   UNL     1      -8.002   3.253  -2.508  1.00  0.00    -0.166 F 
ENDBRANCH  17  18
ENDBRANCH   8  12
ENDBRANCH   1   8
BRANCH   4  22
ATOM     22  C   UNL     1       1.484  -1.994   0.094  1.00  0.00     0.022 C 
ATOM     23  C   UNL     1       1.459  -3.550   0.100  1.00  0.00     0.028 C 
ATOM     24  C   UNL     1       1.811  -1.512  -1.362  1.00  0.00     0.044 C 
ATOM     25  C   UNL     1       2.625  -1.573   1.097  1.00  0.00     0.044 C 
ATOM     26  C   UNL     1       3.311  -1.567  -1.684  1.00  0.00     0.121 C 
ATOM     27  C   UNL     1       3.489  -0.415   0.579  1.00  0.00     0.121 C 
ATOM     28  N   UNL     1       4.090  -0.789  -0.710  1.00  0.00    -0.338 N 
ATOM     29  C   UNL     1       5.443  -0.416  -1.030  1.00  0.00     0.257 C 
ATOM     30  O   UNL     1       6.105  -1.099  -1.858  1.00  0.00    -0.269 OA
BRANCH  29  31
ATOM     31  C   UNL     1       6.069   0.777  -0.423  1.00  0.00     0.082 A 
ATOM     32  C   UNL     1       7.107   0.651   0.523  1.00  0.00     0.054 A 
ATOM     33  C   UNL     1       5.642   2.075  -0.772  1.00  0.00     0.054 A 
ATOM     34  C   UNL     1       7.615  -0.692   0.963  1.00  0.00     0.068 C 
ATOM     35  N   UNL     1       7.650   1.769   1.075  1.00  0.00    -0.241 NA
ATOM     36  N   UNL     1       6.225   3.152  -0.183  1.00  0.00    -0.241 NA
ATOM     37  C   UNL     1       4.558   2.307  -1.785  1.00  0.00     0.068 C 
ATOM     38  C   UNL     1       7.216   3.007   0.731  1.00  0.00     0.222 A 
ENDBRANCH  29  31
ENDBRANCH   4  22
TORSDOF 7
