REMARK SMILES NCCCC[C@@H]1NC(=O)[C@@H](Cc2c[nH]c3ccccc23)NC(=O)[C@H](c2ccccc2)NC(=O)[C@@H]2C[C@@H](OC(=O)NCCN)CN2C(=O)[C@H](Cc2ccccc2)NC(=O)[C@H](Cc2ccc(OCc3ccccc3)cc2)NC1=O
REMARK SMILES IDX 56 1 57 2 58 3 59 5 75 6 76 7 77 8 6 10 5 11 4 12 3 13 2 14
REMARK SMILES IDX 1 15 7 18 8 19 9 21 10 22 11 23 12 24 13 25 20 26 14 27
REMARK SMILES IDX 15 28 19 29 16 31 18 32 17 33 21 34 22 35 23 37 60 39 61 40
REMARK SMILES IDX 62 41 74 42 63 43 73 44 64 45 65 46 66 47 67 48 68 49 72 50
REMARK SMILES IDX 69 51 71 52 70 53 48 54 46 55 47 56 45 57 34 58 44 59 35 60
REMARK SMILES IDX 36 61 32 62 31 63 33 64 24 66 25 68 26 69 30 70 27 71 29 72
REMARK SMILES IDX 28 73 37 74 38 75 39 76 40 77 41 79 42 80 43 81 49 84 50 85
REMARK SMILES IDX 51 86 55 87 52 88 54 89 53 90
REMARK H PARENT 56 4 75 9 1 16 1 17 7 20 14 30 21 36 31 65 40 78 43 82 43 83
REMARK Flexibility Score: 70.00
ROOT
ATOM      1  N   UNL     1       1.444   2.615  -0.036  1.00  0.00    -0.342 N 
ATOM      2  C   UNL     1       2.237   1.464  -0.347  1.00  0.00     0.243 C 
ATOM      3  O   UNL     1       3.374   1.625  -0.874  1.00  0.00    -0.273 OA
ATOM      4  H   UNL     1       1.687   3.148   0.829  1.00  0.00     0.164 HD
ENDROOT
BRANCH   2   5
ATOM      5  C   UNL     1       1.787   0.090   0.087  1.00  0.00     0.175 C 
BRANCH   5   6
ATOM      6  N   UNL     1       2.212  -0.929  -0.876  1.00  0.00    -0.342 N 
ATOM      7  C   UNL     1       1.366  -2.030  -1.217  1.00  0.00     0.243 C 
ATOM      8  O   UNL     1       0.403  -1.847  -2.011  1.00  0.00    -0.273 OA
ATOM      9  H   UNL     1       3.161  -0.873  -1.326  1.00  0.00     0.164 HD
BRANCH   7  10
ATOM     10  C   UNL     1       1.624  -3.387  -0.605  1.00  0.00     0.171 C 
BRANCH  10  11
ATOM     11  C   UNL     1       1.397  -4.569  -1.571  1.00  0.00     0.035 C 
BRANCH  11  12
ATOM     12  C   UNL     1       2.446  -4.620  -2.693  1.00  0.00     0.004 C 
BRANCH  12  13
ATOM     13  C   UNL     1       2.297  -5.861  -3.591  1.00  0.00     0.015 C 
BRANCH  13  14
ATOM     14  C   UNL     1       0.992  -5.892  -4.405  1.00  0.00     0.077 C 
BRANCH  14  15
ATOM     15  N   UNL     1       0.820  -4.672  -5.189  1.00  0.00    -0.330 NA
ATOM     16  H   UNL     1      -0.066  -4.766  -5.737  1.00  0.00     0.118 HD
ATOM     17  H   UNL     1       1.598  -4.619  -5.887  1.00  0.00     0.118 HD
ENDBRANCH  14  15
ENDBRANCH  13  14
ENDBRANCH  12  13
ENDBRANCH  11  12
ENDBRANCH  10  11
BRANCH  10  18
ATOM     18  N   UNL     1       0.877  -3.556   0.650  1.00  0.00    -0.343 N 
ATOM     19  C   UNL     1      -0.533  -3.346   0.868  1.00  0.00     0.243 C 
ATOM     20  H   UNL     1       1.460  -3.652   1.512  1.00  0.00     0.164 HD
ATOM     21  O   UNL     1      -0.905  -2.909   1.991  1.00  0.00    -0.273 OA
BRANCH  19  22
ATOM     22  C   UNL     1      -1.589  -3.757  -0.136  1.00  0.00     0.175 C 
BRANCH  22  23
ATOM     23  C   UNL     1      -1.816  -5.287  -0.117  1.00  0.00     0.072 C 
BRANCH  23  24
ATOM     24  C   UNL     1      -2.465  -5.807   1.139  1.00  0.00    -0.020 A 
ATOM     25  C   UNL     1      -3.823  -6.066   1.312  1.00  0.00     0.087 A 
ATOM     26  C   UNL     1      -1.865  -6.143   2.336  1.00  0.00     0.003 A 
ATOM     27  N   UNL     1      -4.061  -6.528   2.560  1.00  0.00    -0.361 N 
ATOM     28  C   UNL     1      -2.865  -6.564   3.174  1.00  0.00     0.046 A 
ATOM     29  C   UNL     1      -0.527  -6.137   2.735  1.00  0.00     0.010 A 
ATOM     30  H   UNL     1      -4.978  -6.830   2.952  1.00  0.00     0.166 HD
ATOM     31  C   UNL     1      -2.600  -6.993   4.475  1.00  0.00     0.026 A 
ATOM     32  C   UNL     1      -0.234  -6.548   4.048  1.00  0.00     0.001 A 
ATOM     33  C   UNL     1      -1.263  -6.973   4.915  1.00  0.00     0.002 A 
ENDBRANCH  23  24
ENDBRANCH  22  23
BRANCH  22  34
ATOM     34  N   UNL     1      -2.839  -3.027   0.106  1.00  0.00    -0.342 N 
ATOM     35  C   UNL     1      -2.996  -1.648  -0.252  1.00  0.00     0.247 CG0
ATOM     36  H   UNL     1      -3.643  -3.489   0.588  1.00  0.00     0.164 HD
ATOM     37  O   UNL     1      -2.226  -1.121  -1.100  1.00  0.00    -0.272 OA
ATOM     38  G   UNL     1      -4.123  -0.848   0.340  1.00  0.00     0.000 G0
ENDBRANCH  22  34
ENDBRANCH  19  22
ENDBRANCH  10  18
ENDBRANCH   7  10
ENDBRANCH   5   6
BRANCH   5  39
ATOM     39  C   UNL     1       2.283  -0.255   1.507  1.00  0.00     0.070 C 
BRANCH  39  40
ATOM     40  C   UNL     1       3.775  -0.086   1.689  1.00  0.00    -0.045 A 
ATOM     41  C   UNL     1       4.675  -1.036   1.178  1.00  0.00     0.007 A 
ATOM     42  C   UNL     1       4.279   1.035   2.372  1.00  0.00     0.007 A 
ATOM     43  C   UNL     1       6.055  -0.864   1.333  1.00  0.00     0.047 A 
ATOM     44  C   UNL     1       5.654   1.198   2.548  1.00  0.00     0.047 A 
ATOM     45  C   UNL     1       6.553   0.265   2.018  1.00  0.00     0.119 A 
BRANCH  45  46
ATOM     46  O   UNL     1       7.921   0.501   2.188  1.00  0.00    -0.489 OA
BRANCH  46  47
ATOM     47  C   UNL     1       8.962  -0.229   1.537  1.00  0.00     0.265 C 
BRANCH  47  48
ATOM     48  C   UNL     1      10.272   0.456   1.805  1.00  0.00    -0.011 A 
ATOM     49  C   UNL     1      11.234  -0.126   2.651  1.00  0.00     0.007 A 
ATOM     50  C   UNL     1      10.518   1.723   1.248  1.00  0.00     0.007 A 
ATOM     51  C   UNL     1      12.426   0.552   2.925  1.00  0.00     0.000 A 
ATOM     52  C   UNL     1      11.709   2.395   1.527  1.00  0.00     0.000 A 
ATOM     53  C   UNL     1      12.661   1.813   2.369  1.00  0.00     0.000 A 
ENDBRANCH  47  48
ENDBRANCH  46  47
ENDBRANCH  45  46
ENDBRANCH  39  40
ENDBRANCH   5  39
ENDBRANCH   2   5
BRANCH   1  54
ATOM     54  C   UNL     1       0.488   3.211  -0.975  1.00  0.00     0.176 C 
BRANCH  54  55
ATOM     55  C   UNL     1      -0.761   2.375  -1.034  1.00  0.00     0.246 C 
ATOM     56  O   UNL     1      -0.762   1.278  -1.656  1.00  0.00    -0.272 OA
BRANCH  55  57
ATOM     57  N   UNL     1      -1.951   2.815  -0.376  1.00  0.00    -0.325 N 
ATOM     58  C   UNL     1      -2.227   2.503   1.012  1.00  0.00     0.178 C 
ATOM     59  C   UNL     1      -2.766   3.893  -0.898  1.00  0.00     0.165 C 
ATOM     60  C   UNL     1      -3.311   3.495   1.451  1.00  0.00     0.082 C 
ATOM     61  C   UNL     1      -3.822   4.167   0.169  1.00  0.00     0.200 C 
BRANCH  58  62
ATOM     62  C   UNL     1      -2.677   1.075   1.147  1.00  0.00     0.243 C 
ATOM     63  N   UNL     1      -3.784   0.579   0.377  1.00  0.00    -0.339 N 
ATOM     64  O   UNL     1      -2.079   0.313   1.957  1.00  0.00    -0.273 OA
ATOM     65  H   UNL     1      -4.372   1.269  -0.143  1.00  0.00     0.164 HD
BRANCH  63  66
ATOM     66  C   UNL     1      -4.123  -0.848   0.340  1.00  0.00     0.202 CG0
ATOM     67  G   UNL     1      -2.996  -1.648  -0.252  1.00  0.00     0.000 G0
BRANCH  66  68
ATOM     68  C   UNL     1      -5.391  -1.096  -0.448  1.00  0.00    -0.016 A 
ATOM     69  C   UNL     1      -6.435  -1.853   0.115  1.00  0.00     0.006 A 
ATOM     70  C   UNL     1      -5.527  -0.624  -1.768  1.00  0.00     0.006 A 
ATOM     71  C   UNL     1      -7.592  -2.125  -0.624  1.00  0.00     0.000 A 
ATOM     72  C   UNL     1      -6.689  -0.889  -2.499  1.00  0.00     0.000 A 
ATOM     73  C   UNL     1      -7.718  -1.643  -1.928  1.00  0.00     0.000 A 
ENDBRANCH  66  68
ENDBRANCH  63  66
ENDBRANCH  58  62
BRANCH  61  74
ATOM     74  O   UNL     1      -3.993   5.574   0.342  1.00  0.00    -0.444 OA
BRANCH  74  75
ATOM     75  C   UNL     1      -4.959   6.130   1.186  1.00  0.00     0.407 C 
ATOM     76  O   UNL     1      -5.732   5.390   1.857  1.00  0.00    -0.225 OA
ATOM     77  N   UNL     1      -5.059   7.554   1.284  1.00  0.00    -0.320 N 
ATOM     78  H   UNL     1      -4.421   8.133   0.695  1.00  0.00     0.167 HD
BRANCH  77  79
ATOM     79  C   UNL     1      -5.990   8.196   2.213  1.00  0.00     0.134 C 
BRANCH  79  80
ATOM     80  C   UNL     1      -5.983   9.726   2.054  1.00  0.00     0.099 C 
BRANCH  80  81
ATOM     81  N   UNL     1      -6.615  10.152   0.806  1.00  0.00    -0.329 NA
ATOM     82  H   UNL     1      -7.597   9.788   0.781  1.00  0.00     0.118 HD
ATOM     83  H   UNL     1      -6.098   9.736  -0.002  1.00  0.00     0.118 HD
ENDBRANCH  80  81
ENDBRANCH  79  80
ENDBRANCH  77  79
ENDBRANCH  74  75
ENDBRANCH  61  74
ENDBRANCH  55  57
ENDBRANCH  54  55
BRANCH  54  84
ATOM     84  C   UNL     1       1.115   3.430  -2.367  1.00  0.00     0.070 C 
BRANCH  84  85
ATOM     85  C   UNL     1       0.138   4.077  -3.316  1.00  0.00    -0.045 A 
ATOM     86  C   UNL     1      -0.516   3.309  -4.294  1.00  0.00     0.004 A 
ATOM     87  C   UNL     1      -0.175   5.441  -3.190  1.00  0.00     0.004 A 
ATOM     88  C   UNL     1      -1.468   3.899  -5.133  1.00  0.00     0.000 A 
ATOM     89  C   UNL     1      -1.132   6.025  -4.026  1.00  0.00     0.000 A 
ATOM     90  C   UNL     1      -1.777   5.254  -4.996  1.00  0.00     0.000 A 
ENDBRANCH  84  85
ENDBRANCH  54  84
ENDBRANCH   1  54
TORSDOF 20
