REMARK SMILES N#C[C@@H]1C[C@@H]2C[C@@H]2N1C(=O)[C@@H](N)C12CC3CC(CC(O)(C3)C1)C2
REMARK SMILES IDX 9 1 10 2 8 3 5 4 6 5 7 6 4 7 3 8 2 9 1 10 11 11 12 12 13 15
REMARK SMILES IDX 23 16 22 17 14 18 17 19 19 20 15 21 16 22 18 23 21 24 20 25
REMARK H PARENT 12 13 12 14 20 26
REMARK Flexibility Score: inf
ROOT
ATOM      1  C   UNL     1       1.486  -0.971   0.755  1.00  0.00     0.241 C 
ATOM      2  O   UNL     1       1.524  -1.269   1.984  1.00  0.00    -0.273 OA
ENDROOT
BRANCH   1   3
ATOM      3  N   UNL     1       2.491  -0.083   0.220  1.00  0.00    -0.322 N 
ATOM      4  C   UNL     1       4.295   1.473   0.201  1.00  0.00     0.017 C 
ATOM      5  C   UNL     1       4.805   0.340   1.084  1.00  0.00     0.031 C 
ATOM      6  C   UNL     1       3.332   0.721   1.096  1.00  0.00     0.090 C 
ATOM      7  C   UNL     1       3.927   1.136  -1.241  1.00  0.00     0.046 C 
ATOM      8  C   UNL     1       2.833   0.060  -1.191  1.00  0.00     0.189 C 
BRANCH   8   9
ATOM      9  C   UNL     1       3.335  -1.220  -1.719  1.00  0.00     0.087 C 
ATOM     10  N   UNL     1       3.733  -2.227  -2.121  1.00  0.00    -0.196 NA
ENDBRANCH   8   9
ENDBRANCH   1   3
BRANCH   1  11
ATOM     11  C   UNL     1       0.358  -1.522  -0.106  1.00  0.00     0.147 C 
BRANCH  11  12
ATOM     12  N   UNL     1       0.152  -2.949   0.167  1.00  0.00    -0.319 NA
ATOM     13  H   UNL     1       1.024  -3.470  -0.100  1.00  0.00     0.119 HD
ATOM     14  H   UNL     1       0.006  -3.107   1.190  1.00  0.00     0.119 HD
ENDBRANCH  11  12
BRANCH  11  15
ATOM     15  C   UNL     1      -0.978  -0.710   0.031  1.00  0.00    -0.002 C 
ATOM     16  C   UNL     1      -1.552  -0.742   1.481  1.00  0.00     0.013 C 
ATOM     17  C   UNL     1      -0.746   0.777  -0.374  1.00  0.00     0.044 C 
ATOM     18  C   UNL     1      -2.048  -1.309  -0.933  1.00  0.00     0.013 C 
ATOM     19  C   UNL     1      -2.871   0.057   1.553  1.00  0.00    -0.007 C 
ATOM     20  C   UNL     1      -2.068   1.583  -0.294  1.00  0.00     0.066 C 
ATOM     21  C   UNL     1      -3.367  -0.511  -0.848  1.00  0.00    -0.007 C 
ATOM     22  C   UNL     1      -3.908  -0.562   0.593  1.00  0.00     0.007 C 
ATOM     23  C   UNL     1      -2.608   1.523   1.152  1.00  0.00     0.039 C 
ATOM     24  C   UNL     1      -3.112   0.955  -1.251  1.00  0.00     0.039 C 
BRANCH  20  25
ATOM     25  O   UNL     1      -1.841   2.929  -0.631  1.00  0.00    -0.390 OA
ATOM     26  H   UNL     1      -1.488   2.954  -1.558  1.00  0.00     0.211 HD
ENDBRANCH  20  25
ENDBRANCH  11  15
ENDBRANCH   1  11
TORSDOF 6
