REMARK SMILES CCN1CCCC1CNC(=O)c1cc(S(=O)(=O)CC)c(N)cc1OC
REMARK SMILES IDX 9 1 10 2 11 3 8 5 7 6 3 7 4 8 5 9 6 10 2 11 1 12 12 13 13 14
REMARK SMILES IDX 23 15 14 16 22 17 20 18 24 19 25 20 15 21 16 22 17 23 18 24
REMARK SMILES IDX 19 25 21 26
REMARK H PARENT 9 4 21 27 21 28
REMARK Flexibility Score: inf
ROOT
ATOM      1  N   UNL     1       1.001  -0.369   0.556  1.00  0.00    -0.350 N 
ATOM      2  C   UNL     1      -0.254   0.029   1.128  1.00  0.00     0.255 C 
ATOM      3  O   UNL     1      -0.271   0.802   2.125  1.00  0.00    -0.269 OA
ATOM      4  H   UNL     1       1.004  -0.855  -0.369  1.00  0.00     0.163 HD
ENDROOT
BRANCH   1   5
ATOM      5  C   UNL     1       2.271  -0.054   1.211  1.00  0.00     0.135 C 
BRANCH   5   6
ATOM      6  C   UNL     1       3.469  -0.592   0.396  1.00  0.00     0.076 C 
ATOM      7  N   UNL     1       3.620  -0.062  -0.976  1.00  0.00    -0.299 NA
ATOM      8  C   UNL     1       5.026  -0.312  -1.326  1.00  0.00     0.085 C 
ATOM      9  C   UNL     1       5.832  -0.351  -0.028  1.00  0.00     0.017 C 
ATOM     10  C   UNL     1       4.811  -0.424   1.098  1.00  0.00     0.022 C 
BRANCH   7  11
ATOM     11  C   UNL     1       3.199   1.342  -1.230  1.00  0.00     0.081 C 
ATOM     12  C   UNL     1       4.037   2.423  -0.529  1.00  0.00     0.021 C 
ENDBRANCH   7  11
ENDBRANCH   5   6
ENDBRANCH   1   5
BRANCH   2  13
ATOM     13  C   UNL     1      -1.534  -0.423   0.538  1.00  0.00     0.083 A 
ATOM     14  C   UNL     1      -2.608   0.478   0.468  1.00  0.00     0.040 A 
ATOM     15  C   UNL     1      -1.701  -1.740   0.069  1.00  0.00     0.133 A 
ATOM     16  C   UNL     1      -3.842   0.102  -0.083  1.00  0.00     0.091 A 
ATOM     17  C   UNL     1      -2.925  -2.110  -0.516  1.00  0.00     0.074 A 
ATOM     18  C   UNL     1      -3.988  -1.201  -0.613  1.00  0.00     0.054 A 
BRANCH  15  19
ATOM     19  O   UNL     1      -0.648  -2.659   0.216  1.00  0.00    -0.496 OA
ATOM     20  C   UNL     1      -0.684  -4.014  -0.221  1.00  0.00     0.278 C 
ENDBRANCH  15  19
BRANCH  16  21
ATOM     21  S   UNL     1      -5.182   1.268  -0.114  1.00  0.00     0.180 S 
ATOM     22  O   UNL     1      -6.432   0.603   0.392  1.00  0.00    -0.224 OA
ATOM     23  O   UNL     1      -5.398   1.713  -1.533  1.00  0.00    -0.224 OA
BRANCH  21  24
ATOM     24  C   UNL     1      -4.901   2.726   0.889  1.00  0.00     0.139 C 
ATOM     25  C   UNL     1      -4.895   2.387   2.376  1.00  0.00     0.021 C 
ENDBRANCH  21  24
ENDBRANCH  16  21
BRANCH  18  26
ATOM     26  N   UNL     1      -5.194  -1.625  -1.265  1.00  0.00    -0.398 N 
ATOM     27  H   UNL     1      -5.953  -0.961  -1.527  1.00  0.00     0.156 HD
ATOM     28  H   UNL     1      -5.307  -2.616  -1.575  1.00  0.00     0.156 HD
ENDBRANCH  18  26
ENDBRANCH   2  13
TORSDOF 8
