REMARK SMILES CCN(CC)CCNC(=O)c1ccc(N)c(Cl)c1
REMARK SMILES IDX 7 1 6 2 3 3 2 4 1 5 4 6 5 7 8 8 9 9 10 11 11 12 12 13 18 14
REMARK SMILES IDX 13 15 16 16 14 17 17 18 15 19
REMARK H PARENT 8 10 15 20 15 21
REMARK Flexibility Score: inf
ROOT
ATOM      1  C   UNL     1      -0.791   0.223  -1.391  1.00  0.00     0.131 C 
ENDROOT
BRANCH   1   2
ATOM      2  C   UNL     1      -1.560  -0.332  -0.188  1.00  0.00     0.105 C 
BRANCH   2   3
ATOM      3  N   UNL     1      -3.018  -0.266  -0.440  1.00  0.00    -0.302 NA
BRANCH   3   4
ATOM      4  C   UNL     1      -3.730  -1.369   0.245  1.00  0.00     0.081 C 
ATOM      5  C   UNL     1      -3.749  -2.615  -0.636  1.00  0.00     0.021 C 
ENDBRANCH   3   4
BRANCH   3   6
ATOM      6  C   UNL     1      -3.568   1.051  -0.045  1.00  0.00     0.081 C 
ATOM      7  C   UNL     1      -4.750   1.420  -0.936  1.00  0.00     0.021 C 
ENDBRANCH   3   6
ENDBRANCH   2   3
ENDBRANCH   1   2
BRANCH   1   8
ATOM      8  N   UNL     1       0.650   0.106  -1.174  1.00  0.00    -0.351 N 
ATOM      9  C   UNL     1       1.359   0.958  -0.260  1.00  0.00     0.251 C 
ATOM     10  H   UNL     1       1.180  -0.563  -1.775  1.00  0.00     0.163 HD
ATOM     11  O   UNL     1       0.774   1.958   0.241  1.00  0.00    -0.269 OA
BRANCH   9  12
ATOM     12  C   UNL     1       2.775   0.693   0.092  1.00  0.00     0.041 A 
ATOM     13  C   UNL     1       3.591   1.737   0.559  1.00  0.00     0.016 A 
ATOM     14  C   UNL     1       3.319  -0.600  -0.009  1.00  0.00     0.036 A 
ATOM     15  C   UNL     1       4.924   1.499   0.898  1.00  0.00     0.028 A 
ATOM     16  C   UNL     1       4.655  -0.844   0.330  1.00  0.00     0.064 A 
ATOM     17  C   UNL     1       5.469   0.213   0.786  1.00  0.00     0.050 A 
ATOM     18  Cl  UNL     1       5.268  -2.486   0.182  1.00  0.00    -0.082 Cl
BRANCH  17  19
ATOM     19  N   UNL     1       6.841  -0.002   1.140  1.00  0.00    -0.398 N 
ATOM     20  H   UNL     1       7.431   0.790   1.479  1.00  0.00     0.156 HD
ATOM     21  H   UNL     1       7.289  -0.942   1.071  1.00  0.00     0.156 HD
ENDBRANCH  17  19
ENDBRANCH   9  12
ENDBRANCH   1   8
TORSDOF 7
