REMARK SMILES CC(=O)[C@]1(N)Cc2c(O)c3c(c(O)c2[C@@H](O[C@H]2C[C@H](O)[C@H](O)CO2)C1)C(=O)c1ccccc1C3=O
REMARK SMILES IDX 16 1 15 2 25 3 14 4 4 5 7 6 12 7 6 8 8 9 11 10 10 11 26 12
REMARK SMILES IDX 34 13 27 14 28 15 33 16 35 17 29 18 32 19 30 20 31 21 5 22
REMARK SMILES IDX 2 25 1 26 3 27 13 28 9 30 17 32 18 33 24 34 19 35 23 36
REMARK SMILES IDX 21 37 20 38 22 40
REMARK H PARENT 5 23 5 24 13 29 9 31 20 39 22 41
REMARK Flexibility Score: inf
ROOT
ATOM      1  O   UNL     1      -1.522   0.496  -0.904  1.00  0.00    -0.344 OA
ENDROOT
BRANCH   1   2
ATOM      2  C   UNL     1      -0.982  -0.672  -0.299  1.00  0.00     0.158 C 
ATOM      3  C   UNL     1      -1.360  -1.909  -1.142  1.00  0.00     0.068 C 
ATOM      4  C   UNL     1       0.525  -0.482  -0.151  1.00  0.00     0.031 A 
ATOM      5  C   UNL     1      -0.492  -3.138  -0.817  1.00  0.00     0.082 C 
ATOM      6  C   UNL     1       1.444  -1.491  -0.521  1.00  0.00     0.006 A 
ATOM      7  C   UNL     1       1.001   0.695   0.465  1.00  0.00     0.133 A 
ATOM      8  C   UNL     1       0.974  -2.781  -1.164  1.00  0.00     0.070 C 
ATOM      9  C   UNL     1       2.825  -1.282  -0.355  1.00  0.00     0.131 A 
ATOM     10  C   UNL     1       2.393   0.930   0.586  1.00  0.00     0.080 A 
ATOM     11  C   UNL     1       3.301  -0.110   0.283  1.00  0.00     0.080 A 
ATOM     12  C   UNL     1       2.934   2.270   0.956  1.00  0.00     0.198 C 
ATOM     13  C   UNL     1       4.721   0.030   0.719  1.00  0.00     0.198 C 
ATOM     14  O   UNL     1       2.204   3.296   0.887  1.00  0.00    -0.288 OA
ATOM     15  C   UNL     1       4.365   2.433   1.295  1.00  0.00     0.034 A 
ATOM     16  C   UNL     1       5.241   1.339   1.170  1.00  0.00     0.034 A 
ATOM     17  O   UNL     1       5.467  -0.983   0.804  1.00  0.00    -0.288 OA
ATOM     18  C   UNL     1       4.864   3.675   1.731  1.00  0.00     0.013 A 
ATOM     19  C   UNL     1       6.602   1.501   1.488  1.00  0.00     0.013 A 
ATOM     20  C   UNL     1       6.217   3.823   2.042  1.00  0.00     0.001 A 
ATOM     21  C   UNL     1       7.085   2.738   1.921  1.00  0.00     0.001 A 
BRANCH   5  22
ATOM     22  N   UNL     1      -0.930  -4.266  -1.652  1.00  0.00    -0.319 NA
ATOM     23  H   UNL     1      -0.831  -4.021  -2.665  1.00  0.00     0.119 HD
ATOM     24  H   UNL     1      -0.308  -5.089  -1.475  1.00  0.00     0.119 HD
ENDBRANCH   5  22
BRANCH   5  25
ATOM     25  C   UNL     1      -0.660  -3.536   0.651  1.00  0.00     0.150 C 
ATOM     26  C   UNL     1      -1.976  -4.035   1.175  1.00  0.00     0.090 C 
ATOM     27  O   UNL     1       0.276  -3.444   1.432  1.00  0.00    -0.298 OA
ENDBRANCH   5  25
BRANCH   7  28
ATOM     28  O   UNL     1       0.060   1.587   0.992  1.00  0.00    -0.507 OA
ATOM     29  H   UNL     1       0.275   2.270   1.706  1.00  0.00     0.293 HD
ENDBRANCH   7  28
BRANCH   9  30
ATOM     30  O   UNL     1       3.700  -2.241  -0.879  1.00  0.00    -0.507 OA
ATOM     31  H   UNL     1       4.668  -2.052  -1.103  1.00  0.00     0.293 HD
ENDBRANCH   9  30
ENDBRANCH   1   2
BRANCH   1  32
ATOM     32  C   UNL     1      -2.902   0.669  -0.623  1.00  0.00     0.253 C 
ATOM     33  C   UNL     1      -3.195   2.179  -0.630  1.00  0.00     0.096 C 
ATOM     34  O   UNL     1      -3.657   0.029  -1.638  1.00  0.00    -0.350 OA
ATOM     35  C   UNL     1      -4.700   2.466  -0.482  1.00  0.00     0.150 C 
ATOM     36  C   UNL     1      -5.039   0.104  -1.346  1.00  0.00     0.198 C 
ATOM     37  C   UNL     1      -5.532   1.557  -1.415  1.00  0.00     0.169 C 
BRANCH  35  38
ATOM     38  O   UNL     1      -5.110   2.364   0.861  1.00  0.00    -0.390 OA
ATOM     39  H   UNL     1      -5.028   1.417   1.142  1.00  0.00     0.211 HD
ENDBRANCH  35  38
BRANCH  37  40
ATOM     40  O   UNL     1      -6.892   1.608  -1.073  1.00  0.00    -0.388 OA
ATOM     41  H   UNL     1      -7.224   2.498  -1.360  1.00  0.00     0.211 HD
ENDBRANCH  37  40
ENDBRANCH   1  32
TORSDOF 8
