REMARK SMILES CCc1cccc2cc(C(O)CNC(C)(C)C)oc12
REMARK SMILES IDX 12 1 10 2 9 3 3 4 4 5 19 6 5 7 7 8 18 9 6 10 8 11 2 12 1 13
REMARK SMILES IDX 11 14 13 16 14 18 15 19 16 20 17 21
REMARK H PARENT 11 15 13 17
REMARK Flexibility Score: inf
ROOT
ATOM      1  C   UNL     1      -2.072   1.006   1.059  1.00  0.00     0.121 C 
ENDROOT
BRANCH   1   2
ATOM      2  C   UNL     1      -0.713   1.684   0.812  1.00  0.00     0.194 C 
BRANCH   2   3
ATOM      3  C   UNL     1       0.450   0.748   0.994  1.00  0.00     0.135 A 
ATOM      4  C   UNL     1       3.678  -0.357   0.248  1.00  0.00    -0.005 A 
ATOM      5  C   UNL     1       4.386  -1.396   0.891  1.00  0.00     0.007 A 
ATOM      6  C   UNL     1       2.386  -0.081   0.710  1.00  0.00     0.137 A 
ATOM      7  C   UNL     1       3.800  -2.110   1.966  1.00  0.00     0.001 A 
ATOM      8  C   UNL     1       1.825  -0.776   1.751  1.00  0.00     0.021 A 
ATOM      9  O   UNL     1       1.552   0.828   0.268  1.00  0.00    -0.458 OA
ATOM     10  C   UNL     1       2.501  -1.800   2.408  1.00  0.00     0.012 A 
ATOM     11  C   UNL     1       0.570  -0.254   1.959  1.00  0.00     0.057 A 
BRANCH   4  12
ATOM     12  C   UNL     1       4.268   0.383  -0.919  1.00  0.00     0.036 C 
ATOM     13  C   UNL     1       3.895  -0.295  -2.231  1.00  0.00     0.009 C 
ENDBRANCH   4  12
ENDBRANCH   2   3
BRANCH   2  14
ATOM     14  O   UNL     1      -0.553   2.768   1.684  1.00  0.00    -0.384 OA
ATOM     15  H   UNL     1      -1.134   3.500   1.346  1.00  0.00     0.211 HD
ENDBRANCH   2  14
ENDBRANCH   1   2
BRANCH   1  16
ATOM     16  N   UNL     1      -2.235  -0.169   0.179  1.00  0.00    -0.309 NA
ATOM     17  H   UNL     1      -2.505  -0.990   0.773  1.00  0.00     0.123 HD
BRANCH  16  18
ATOM     18  C   UNL     1      -3.217  -0.033  -0.925  1.00  0.00     0.010 C 
ATOM     19  C   UNL     1      -2.866   1.159  -1.844  1.00  0.00     0.027 C 
ATOM     20  C   UNL     1      -4.660   0.115  -0.386  1.00  0.00     0.027 C 
ATOM     21  C   UNL     1      -3.148  -1.321  -1.774  1.00  0.00     0.027 C 
ENDBRANCH  16  18
ENDBRANCH   1  16
TORSDOF 6
