REMARK SMILES C=CC(=O)Nc1cc2c(Nc3ccc(F)c(Cl)c3)ncnc2cc1C#CC(C)(C)N1CCN(C)CC1.Cc1ccc(S(=O)(=O)O)cc1.Cc1ccc(S(=O)(=O)O)cc1
REMARK SMILES IDX 42 1 43 2 44 3 41 4 37 5 38 6 39 7 47 8 40 9 46 10 45 11
REMARK H PARENT 45 12
REMARK Flexibility Score: inf
ROOT
ATOM      1  S   UNL     1       2.870  -0.014  -0.499  1.00  0.00     0.294 S 
ATOM      2  O   UNL     1       3.268   1.184  -1.315  1.00  0.00    -0.194 OA
ATOM      3  O   UNL     1       3.299  -1.255  -1.229  1.00  0.00    -0.194 OA
ENDROOT
BRANCH   1   4
ATOM      4  C   UNL     1       1.125  -0.035  -0.269  1.00  0.00     0.094 A 
ATOM      5  C   UNL     1      -3.148  -0.081   0.306  1.00  0.00     0.044 C 
ATOM      6  C   UNL     1      -1.657  -0.065   0.138  1.00  0.00    -0.051 A 
ATOM      7  C   UNL     1      -0.974   1.154   0.001  1.00  0.00     0.005 A 
ATOM      8  C   UNL     1      -0.942  -1.269   0.050  1.00  0.00     0.005 A 
ATOM      9  C   UNL     1       0.410   1.168  -0.194  1.00  0.00     0.023 A 
ATOM     10  C   UNL     1       0.444  -1.253  -0.142  1.00  0.00     0.023 A 
ENDBRANCH   1   4
BRANCH   1  11
ATOM     11  O   UNL     1       3.638   0.041   0.996  1.00  0.00    -0.282 OA
ATOM     12  H   UNL     1       3.318   0.879   1.416  1.00  0.00     0.234 HD
ENDBRANCH   1  11
TORSDOF 2
