REMARK SMILES COc1cc(Nc2c(C#N)cnc3cc(OCCCN4CCN(C)CC4)c(OC)cc23)c(Cl)cc1Cl
REMARK SMILES IDX 16 1 15 2 7 3 8 4 31 5 11 6 13 7 30 8 12 9 14 10 27 11 6 12
REMARK SMILES IDX 5 14 3 15 4 16 35 17 34 18 36 19 32 20 33 21 2 22 1 23 9 24
REMARK SMILES IDX 10 25 28 26 29 27 17 28 18 29 19 30 20 31 21 32 26 33 22 34
REMARK SMILES IDX 25 35 23 36 24 37
REMARK H PARENT 6 13
REMARK Flexibility Score: inf
ROOT
ATOM      1  O   UNL     1      -0.745  -0.237   0.408  1.00  0.00    -0.490 OA
ENDROOT
BRANCH   1   2
ATOM      2  C   UNL     1       0.421  -0.793  -0.137  1.00  0.00     0.163 A 
ATOM      3  C   UNL     1       3.991  -2.424  -1.748  1.00  0.00     0.068 A 
ATOM      4  C   UNL     1       4.096  -2.521  -3.150  1.00  0.00     0.094 A 
ATOM      5  C   UNL     1       2.813  -1.874  -1.182  1.00  0.00     0.029 A 
ATOM      6  C   UNL     1       3.054  -2.055  -3.956  1.00  0.00     0.133 A 
ATOM      7  C   UNL     1       1.789  -1.427  -2.047  1.00  0.00     0.076 A 
ATOM      8  C   UNL     1       2.616  -1.776   0.209  1.00  0.00     0.063 A 
ATOM      9  N   UNL     1       1.939  -1.528  -3.392  1.00  0.00    -0.255 NA
ATOM     10  C   UNL     1       0.604  -0.898  -1.525  1.00  0.00     0.079 A 
ATOM     11  C   UNL     1       1.435  -1.216   0.733  1.00  0.00     0.161 A 
BRANCH   3  12
ATOM     12  N   UNL     1       5.065  -2.914  -0.923  1.00  0.00    -0.353 N 
ATOM     13  H   UNL     1       5.387  -3.892  -1.098  1.00  0.00     0.167 HD
BRANCH  12  14
ATOM     14  C   UNL     1       5.810  -2.092  -0.002  1.00  0.00     0.061 A 
ATOM     15  C   UNL     1       6.489   0.120   0.804  1.00  0.00     0.139 A 
ATOM     16  C   UNL     1       5.788  -0.688  -0.113  1.00  0.00     0.075 A 
ATOM     17  C   UNL     1       7.226  -0.490   1.827  1.00  0.00     0.084 A 
ATOM     18  C   UNL     1       7.264  -1.883   1.934  1.00  0.00     0.047 A 
ATOM     19  Cl  UNL     1       8.111   0.480   2.996  1.00  0.00    -0.080 Cl
ATOM     20  C   UNL     1       6.564  -2.685   1.031  1.00  0.00     0.066 A 
ATOM     21  Cl  UNL     1       6.618  -4.432   1.248  1.00  0.00    -0.082 Cl
BRANCH  15  22
ATOM     22  O   UNL     1       6.470   1.523   0.732  1.00  0.00    -0.495 OA
ATOM     23  C   UNL     1       5.733   2.273  -0.230  1.00  0.00     0.278 C 
ENDBRANCH  15  22
ENDBRANCH  12  14
ENDBRANCH   3  12
BRANCH   4  24
ATOM     24  C   UNL     1       5.268  -3.084  -3.772  1.00  0.00     0.103 C 
ATOM     25  N   UNL     1       6.209  -3.535  -4.271  1.00  0.00    -0.192 NA
ENDBRANCH   4  24
BRANCH  11  26
ATOM     26  O   UNL     1       1.226  -1.077   2.114  1.00  0.00    -0.493 OA
ATOM     27  C   UNL     1       2.168  -1.443   3.119  1.00  0.00     0.278 C 
ENDBRANCH  11  26
ENDBRANCH   1   2
BRANCH   1  28
ATOM     28  C   UNL     1      -2.062  -0.536  -0.054  1.00  0.00     0.231 C 
BRANCH  28  29
ATOM     29  C   UNL     1      -3.031   0.526   0.462  1.00  0.00     0.057 C 
BRANCH  29  30
ATOM     30  C   UNL     1      -4.488   0.150   0.148  1.00  0.00     0.088 C 
BRANCH  30  31
ATOM     31  N   UNL     1      -5.392   1.284   0.451  1.00  0.00    -0.301 NA
ATOM     32  C   UNL     1      -6.727   0.789   0.844  1.00  0.00     0.100 C 
ATOM     33  C   UNL     1      -5.515   2.186  -0.717  1.00  0.00     0.100 C 
ATOM     34  C   UNL     1      -7.659   1.963   1.164  1.00  0.00     0.099 C 
ATOM     35  C   UNL     1      -6.439   3.361  -0.387  1.00  0.00     0.099 C 
ATOM     36  N   UNL     1      -7.771   2.855  -0.006  1.00  0.00    -0.304 NA
ATOM     37  C   UNL     1      -8.670   3.979   0.295  1.00  0.00     0.105 C 
ENDBRANCH  30  31
ENDBRANCH  29  30
ENDBRANCH  28  29
ENDBRANCH   1  28
TORSDOF 10
