REMARK SMILES C[C@]12C/C(=C/O)C(=O)C[C@@H]1CC[C@@H]1[C@@H]2CC[C@@]2(C)[C@H]1CC[C@]2(C)O
REMARK SMILES IDX 19 1 20 2 21 3 22 4 23 5 17 6 18 7 16 8 15 9 14 10 13 11
REMARK SMILES IDX 12 12 11 13 10 14 9 15 7 16 8 17 4 18 3 19 2 20 1 21 5 22
REMARK SMILES IDX 24 23 6 25
REMARK H PARENT 24 24 6 26
REMARK Flexibility Score: inf
ROOT
ATOM      1  C   UNL     1      -1.922  -0.761  -0.383  1.00  0.00     0.001 C 
ATOM      2  C   UNL     1      -2.849  -1.523  -1.321  1.00  0.00     0.007 C 
ATOM      3  C   UNL     1      -4.261  -1.010  -0.981  1.00  0.00     0.036 C 
ATOM      4  C   UNL     1      -4.090   0.230  -0.041  1.00  0.00     0.068 C 
ATOM      5  C   UNL     1      -4.463  -0.173   1.405  1.00  0.00     0.042 C 
ATOM      6  C   UNL     1      -2.578   0.619  -0.216  1.00  0.00    -0.001 C 
ATOM      7  C   UNL     1      -2.425   1.519  -1.489  1.00  0.00     0.015 C 
ATOM      8  C   UNL     1      -1.891   1.319   0.985  1.00  0.00     0.010 C 
ATOM      9  C   UNL     1      -0.363   1.444   0.773  1.00  0.00     0.005 C 
ATOM     10  C   UNL     1       0.323   0.084   0.417  1.00  0.00    -0.001 C 
ATOM     11  C   UNL     1      -0.419  -0.680  -0.733  1.00  0.00    -0.004 C 
ATOM     12  C   UNL     1       0.177  -2.090  -0.900  1.00  0.00     0.004 C 
ATOM     13  C   UNL     1       1.680  -2.028  -1.177  1.00  0.00     0.005 C 
ATOM     14  C   UNL     1       2.423  -1.274  -0.056  1.00  0.00     0.003 C 
ATOM     15  C   UNL     1       3.941  -1.319  -0.308  1.00  0.00     0.085 C 
ATOM     16  C   UNL     1       4.710  -0.524   0.705  1.00  0.00     0.162 C 
ATOM     17  O   UNL     1       5.912  -0.838   0.925  1.00  0.00    -0.294 OA
ATOM     18  C   UNL     1       4.091   0.641   1.392  1.00  0.00     0.030 C 
ATOM     19  C   UNL     1       2.582   0.771   1.416  1.00  0.00     0.050 C 
ATOM     20  C   UNL     1       1.878   0.182   0.158  1.00  0.00    -0.022 C 
ATOM     21  C   UNL     1       2.194   1.102  -1.060  1.00  0.00     0.012 C 
ATOM     22  C   UNL     1       4.824   1.534   2.079  1.00  0.00     0.190 C 
ENDROOT
BRANCH   4  23
ATOM     23  O   UNL     1      -4.956   1.293  -0.388  1.00  0.00    -0.390 OA
ATOM     24  H   UNL     1      -5.053   1.343  -1.373  1.00  0.00     0.211 HD
ENDBRANCH   4  23
BRANCH  22  25
ATOM     25  O   UNL     1       6.214   1.471   2.122  1.00  0.00    -0.515 OA
ATOM     26  H   UNL     1       6.742   2.159   2.645  1.00  0.00     0.292 HD
ENDBRANCH  22  25
TORSDOF 2
