REMARK SMILES CNCCc1ccccn1
REMARK SMILES IDX 3 1 2 2 1 3 4 5 5 6 6 7 10 8 7 9 9 10 8 11
REMARK H PARENT 2 4
REMARK Flexibility Score: inf
ROOT
ATOM      1  C   UNL     1      -1.637   0.175  -0.675  1.00  0.00     0.087 C 
ENDROOT
BRANCH   1   2
ATOM      2  N   UNL     1      -1.884  -0.584   0.557  1.00  0.00    -0.319 NA
ATOM      3  C   UNL     1      -3.119  -0.125   1.196  1.00  0.00     0.101 C 
ATOM      4  H   UNL     1      -1.102  -0.388   1.225  1.00  0.00     0.122 HD
ENDBRANCH   1   2
BRANCH   1   5
ATOM      5  C   UNL     1      -0.464  -0.426  -1.457  1.00  0.00     0.071 C 
BRANCH   5   6
ATOM      6  C   UNL     1       0.840  -0.250  -0.731  1.00  0.00     0.042 A 
ATOM      7  C   UNL     1       1.517   0.978  -0.763  1.00  0.00     0.024 A 
ATOM      8  N   UNL     1       1.351  -1.282  -0.003  1.00  0.00    -0.261 NA
ATOM      9  C   UNL     1       2.713   1.119  -0.056  1.00  0.00     0.003 A 
ATOM     10  C   UNL     1       2.514  -1.163   0.692  1.00  0.00     0.111 A 
ATOM     11  C   UNL     1       3.218   0.043   0.677  1.00  0.00     0.020 A 
ENDBRANCH   5   6
ENDBRANCH   1   5
TORSDOF 3
