REMARK SMILES NCCCC(N)(C(=O)O)C(F)F
REMARK SMILES IDX 4 1 3 2 2 3 1 4 5 7 6 8 10 11 11 12 12 13 7 14 8 15 9 16
REMARK H PARENT 1 5 1 6 6 9 6 10 9 17
REMARK Flexibility Score: inf
ROOT
ATOM      1  C   UNL     1       0.092  -1.105   0.199  1.00  0.00     0.042 C 
ENDROOT
BRANCH   1   2
ATOM      2  C   UNL     1       1.296  -0.586   1.020  1.00  0.00     0.018 C 
BRANCH   2   3
ATOM      3  C   UNL     1       1.985   0.658   0.446  1.00  0.00     0.077 C 
BRANCH   3   4
ATOM      4  N   UNL     1       2.439   0.424  -0.922  1.00  0.00    -0.330 NA
ATOM      5  H   UNL     1       3.224  -0.268  -0.892  1.00  0.00     0.118 HD
ATOM      6  H   UNL     1       2.843   1.318  -1.281  1.00  0.00     0.118 HD
ENDBRANCH   3   4
ENDBRANCH   2   3
ENDBRANCH   1   2
BRANCH   1   7
ATOM      7  C   UNL     1      -1.175  -0.191   0.147  1.00  0.00     0.175 C 
BRANCH   7   8
ATOM      8  N   UNL     1      -1.517   0.266   1.506  1.00  0.00    -0.311 NA
ATOM      9  H   UNL     1      -2.451   0.738   1.497  1.00  0.00     0.120 HD
ATOM     10  H   UNL     1      -0.831   0.989   1.824  1.00  0.00     0.120 HD
ENDBRANCH   7   8
BRANCH   7  11
ATOM     11  C   UNL     1      -2.366  -1.011  -0.407  1.00  0.00     0.373 C 
ATOM     12  F   UNL     1      -2.703  -2.033   0.464  1.00  0.00    -0.208 F 
ATOM     13  F   UNL     1      -2.061  -1.558  -1.643  1.00  0.00    -0.208 F 
ENDBRANCH   7  11
BRANCH   7  14
ATOM     14  C   UNL     1      -0.960   0.990  -0.785  1.00  0.00     0.329 C 
ATOM     15  O   UNL     1      -1.345   2.146  -0.458  1.00  0.00    -0.250 OA
BRANCH  14  16
ATOM     16  O   UNL     1      -0.391   0.792  -2.041  1.00  0.00    -0.480 OA
ATOM     17  H   UNL     1      -0.256   1.567  -2.679  1.00  0.00     0.296 HD
ENDBRANCH  14  16
ENDBRANCH   7  14
ENDBRANCH   1   7
TORSDOF 8
