REMARK SMILES COc1cc2c(cc1OC)CN(CCc1ccc(NC(=O)c3cc(OC)c(OC)cc3NC(=O)c3cnc4ccccc4c3)cc1)CC2
REMARK SMILES IDX 15 1 16 2 17 3 18 4 45 5 46 6 14 7 13 8 12 9 3 10 4 11 8 12
REMARK SMILES IDX 5 13 7 14 6 15 48 16 11 17 47 18 2 19 1 20 9 21 10 22 19 23
REMARK SMILES IDX 20 24 21 26 22 27 23 28 31 29 24 30 30 31 27 32 32 33 33 34
REMARK SMILES IDX 34 36 35 37 36 38 44 39 37 40 43 41 38 42 42 43 39 44 41 45
REMARK SMILES IDX 40 46 25 47 26 48 28 49 29 50
REMARK H PARENT 19 25 32 35
REMARK Flexibility Score: inf
ROOT
ATOM      1  C   UNL     1       1.705  -0.374   1.594  1.00  0.00    -0.047 A 
ATOM      2  C   UNL     1       0.637   0.530   1.481  1.00  0.00     0.006 A 
ATOM      3  C   UNL     1      -0.624   0.087   1.063  1.00  0.00     0.026 A 
ATOM      4  C   UNL     1      -0.825  -1.265   0.726  1.00  0.00     0.041 A 
ATOM      5  C   UNL     1       0.242  -2.166   0.856  1.00  0.00     0.026 A 
ATOM      6  C   UNL     1       1.499  -1.725   1.275  1.00  0.00     0.006 A 
ENDROOT
BRANCH   1   7
ATOM      7  C   UNL     1       3.080   0.105   1.978  1.00  0.00     0.051 C 
BRANCH   7   8
ATOM      8  C   UNL     1       3.894   0.465   0.727  1.00  0.00     0.089 C 
BRANCH   8   9
ATOM      9  N   UNL     1       5.332   0.581   1.054  1.00  0.00    -0.298 NA
ATOM     10  C   UNL     1      10.380   0.949   0.490  1.00  0.00     0.161 A 
ATOM     11  C   UNL     1       9.437   1.548   1.348  1.00  0.00     0.054 A 
ATOM     12  C   UNL     1       9.940   0.116  -0.549  1.00  0.00     0.161 A 
ATOM     13  C   UNL     1       8.063   1.334   1.162  1.00  0.00    -0.038 A 
ATOM     14  C   UNL     1       8.562  -0.105  -0.730  1.00  0.00     0.055 A 
ATOM     15  C   UNL     1       7.624   0.488   0.125  1.00  0.00    -0.027 A 
ATOM     16  C   UNL     1       7.080   1.935   2.132  1.00  0.00     0.051 C 
ATOM     17  C   UNL     1       6.151   0.303  -0.145  1.00  0.00     0.120 C 
ATOM     18  C   UNL     1       5.653   1.924   1.577  1.00  0.00     0.089 C 
BRANCH  10  19
ATOM     19  O   UNL     1      11.760   1.159   0.635  1.00  0.00    -0.493 OA
ATOM     20  C   UNL     1      12.348   2.035   1.591  1.00  0.00     0.278 C 
ENDBRANCH  10  19
BRANCH  12  21
ATOM     21  O   UNL     1      10.904  -0.469  -1.386  1.00  0.00    -0.493 OA
ATOM     22  C   UNL     1      10.608  -1.346  -2.469  1.00  0.00     0.278 C 
ENDBRANCH  12  21
ENDBRANCH   8   9
ENDBRANCH   7   8
ENDBRANCH   1   7
BRANCH   4  23
ATOM     23  N   UNL     1      -2.105  -1.762   0.301  1.00  0.00    -0.322 N 
ATOM     24  C   UNL     1      -2.974  -1.085  -0.625  1.00  0.00     0.257 C 
ATOM     25  H   UNL     1      -2.341  -2.746   0.561  1.00  0.00     0.170 HD
ATOM     26  O   UNL     1      -2.770   0.122  -0.929  1.00  0.00    -0.269 OA
BRANCH  24  27
ATOM     27  C   UNL     1      -4.097  -1.813  -1.263  1.00  0.00     0.067 A 
ATOM     28  C   UNL     1      -3.900  -3.135  -1.697  1.00  0.00     0.066 A 
ATOM     29  C   UNL     1      -5.342  -1.191  -1.504  1.00  0.00     0.058 A 
ATOM     30  C   UNL     1      -4.919  -3.839  -2.367  1.00  0.00     0.161 A 
ATOM     31  C   UNL     1      -6.342  -1.880  -2.201  1.00  0.00     0.077 A 
ATOM     32  C   UNL     1      -6.141  -3.205  -2.629  1.00  0.00     0.162 A 
BRANCH  29  33
ATOM     33  N   UNL     1      -5.634   0.127  -1.020  1.00  0.00    -0.321 N 
ATOM     34  C   UNL     1      -5.797   0.393   0.382  1.00  0.00     0.257 C 
ATOM     35  H   UNL     1      -5.986   0.825  -1.714  1.00  0.00     0.170 HD
ATOM     36  O   UNL     1      -5.220  -0.340   1.232  1.00  0.00    -0.269 OA
BRANCH  34  37
ATOM     37  C   UNL     1      -6.657   1.503   0.851  1.00  0.00     0.059 A 
ATOM     38  C   UNL     1      -6.420   2.106   2.099  1.00  0.00     0.125 A 
ATOM     39  C   UNL     1      -7.760   1.935   0.095  1.00  0.00     0.025 A 
ATOM     40  N   UNL     1      -7.234   3.096   2.552  1.00  0.00    -0.255 NA
ATOM     41  C   UNL     1      -8.589   2.954   0.579  1.00  0.00     0.001 A 
ATOM     42  C   UNL     1      -8.301   3.534   1.834  1.00  0.00     0.070 A 
ATOM     43  C   UNL     1      -9.702   3.398  -0.153  1.00  0.00     0.010 A 
ATOM     44  C   UNL     1      -9.122   4.549   2.340  1.00  0.00     0.029 A 
ATOM     45  C   UNL     1     -10.519   4.411   0.363  1.00  0.00     0.001 A 
ATOM     46  C   UNL     1     -10.230   4.984   1.606  1.00  0.00     0.002 A 
ENDBRANCH  34  37
ENDBRANCH  29  33
BRANCH  30  47
ATOM     47  O   UNL     1      -4.752  -5.167  -2.793  1.00  0.00    -0.493 OA
ATOM     48  C   UNL     1      -3.581  -5.948  -2.562  1.00  0.00     0.278 C 
ENDBRANCH  30  47
BRANCH  32  49
ATOM     49  O   UNL     1      -7.135  -3.925  -3.314  1.00  0.00    -0.493 OA
ATOM     50  C   UNL     1      -8.424  -3.415  -3.637  1.00  0.00     0.278 C 
ENDBRANCH  32  49
ENDBRANCH  24  27
ENDBRANCH   4  23
TORSDOF 11
