REMARK SMILES CC(C)c1ccc(C(=O)NC(=N)N)cc1S(C)(=O)=O
REMARK SMILES IDX 4 1 5 2 6 3 7 4 14 5 15 6 2 7 1 8 3 9 16 10 17 11 18 12
REMARK SMILES IDX 19 13 8 14 9 15 10 16 11 17 13 19 12 20
REMARK H PARENT 10 18 13 21 13 22 12 23
REMARK Flexibility Score: inf
ROOT
ATOM      1  C   UNL     1      -1.077  -1.259   0.145  1.00  0.00    -0.027 A 
ATOM      2  C   UNL     1       0.230  -1.784   0.232  1.00  0.00     0.006 A 
ATOM      3  C   UNL     1       1.348  -0.960   0.299  1.00  0.00     0.014 A 
ATOM      4  C   UNL     1       1.206   0.429   0.283  1.00  0.00     0.041 A 
ATOM      5  C   UNL     1      -0.084   0.976   0.235  1.00  0.00     0.034 A 
ATOM      6  C   UNL     1      -1.237   0.166   0.187  1.00  0.00     0.071 A 
ENDROOT
BRANCH   1   7
ATOM      7  C   UNL     1      -2.200  -2.302   0.076  1.00  0.00     0.014 C 
ATOM      8  C   UNL     1      -2.757  -2.632   1.465  1.00  0.00     0.012 C 
ATOM      9  C   UNL     1      -3.300  -2.027  -0.958  1.00  0.00     0.012 C 
ENDBRANCH   1   7
BRANCH   6  10
ATOM     10  S   UNL     1      -2.806   1.015   0.142  1.00  0.00     0.175 S 
ATOM     11  C   UNL     1      -2.669   2.730   0.614  1.00  0.00     0.163 C 
ATOM     12  O   UNL     1      -3.782   0.399   1.101  1.00  0.00    -0.224 OA
ATOM     13  O   UNL     1      -3.366   0.974  -1.252  1.00  0.00    -0.224 OA
ENDBRANCH   6  10
BRANCH   4  14
ATOM     14  C   UNL     1       2.393   1.317   0.348  1.00  0.00     0.257 C 
ATOM     15  O   UNL     1       2.258   2.496   0.779  1.00  0.00    -0.269 OA
ATOM     16  N   UNL     1       3.681   0.862  -0.106  1.00  0.00    -0.293 N 
ATOM     17  C   UNL     1       4.922   1.525   0.188  1.00  0.00     0.192 C 
ATOM     18  H   UNL     1       3.723   0.020  -0.723  1.00  0.00     0.173 HD
ATOM     19  N   UNL     1       6.127   1.072  -0.435  1.00  0.00    -0.370 N 
ATOM     20  N   UNL     1       4.962   2.510   1.029  1.00  0.00    -0.269 NA
ATOM     21  H   UNL     1       7.043   1.531  -0.230  1.00  0.00     0.159 HD
ATOM     22  H   UNL     1       6.107   0.275  -1.109  1.00  0.00     0.159 HD
ATOM     23  H   UNL     1       5.855   2.998   1.263  1.00  0.00     0.191 HD
ENDBRANCH   4  14
TORSDOF 3
