REMARK SMILES CC(C)c1cc(C(C)C)c(CC(=O)NS(=O)(=O)Oc2c(C(C)C)cccc2C(C)C)c(C(C)C)c1
REMARK SMILES IDX 12 1 13 2 14 3 11 5 10 6 4 7 5 8 35 9 6 10 31 11 2 12 1 13
REMARK SMILES IDX 3 14 7 15 8 16 9 17 32 18 33 19 34 20 15 21 16 22 17 23
REMARK SMILES IDX 18 24 19 25 27 26 20 27 26 28 24 29 25 30 28 31 29 32 30 33
REMARK SMILES IDX 21 34 22 35 23 36
REMARK H PARENT 14 4
REMARK Flexibility Score: inf
ROOT
ATOM      1  C   UNL     1      -0.095  -0.371   0.905  1.00  0.00     0.240 C 
ATOM      2  O   UNL     1      -0.006   0.306  -0.156  1.00  0.00    -0.274 OA
ATOM      3  N   UNL     1      -1.291  -0.319   1.690  1.00  0.00    -0.220 N 
ATOM      4  H   UNL     1      -1.366  -0.889   2.562  1.00  0.00     0.186 HD
ENDROOT
BRANCH   1   5
ATOM      5  C   UNL     1       1.032  -1.276   1.317  1.00  0.00     0.137 C 
BRANCH   5   6
ATOM      6  C   UNL     1       2.391  -0.646   1.049  1.00  0.00    -0.032 A 
ATOM      7  C   UNL     1       5.063   0.233   0.722  1.00  0.00    -0.045 A 
ATOM      8  C   UNL     1       4.331   0.602   1.853  1.00  0.00     0.008 A 
ATOM      9  C   UNL     1       4.435  -0.511  -0.281  1.00  0.00     0.008 A 
ATOM     10  C   UNL     1       2.989   0.211   2.021  1.00  0.00    -0.041 A 
ATOM     11  C   UNL     1       3.094  -0.921  -0.164  1.00  0.00    -0.041 A 
BRANCH   7  12
ATOM     12  C   UNL     1       6.516   0.657   0.587  1.00  0.00     0.013 C 
ATOM     13  C   UNL     1       6.713   1.581  -0.620  1.00  0.00     0.012 C 
ATOM     14  C   UNL     1       7.443  -0.562   0.508  1.00  0.00     0.012 C 
ENDBRANCH   7  12
BRANCH  10  15
ATOM     15  C   UNL     1       2.245   0.684   3.272  1.00  0.00     0.013 C 
ATOM     16  C   UNL     1       2.737  -0.071   4.511  1.00  0.00     0.012 C 
ATOM     17  C   UNL     1       2.355   2.204   3.474  1.00  0.00     0.012 C 
ENDBRANCH  10  15
BRANCH  11  18
ATOM     18  C   UNL     1       2.466  -1.696  -1.325  1.00  0.00     0.013 C 
ATOM     19  C   UNL     1       2.978  -3.140  -1.348  1.00  0.00     0.012 C 
ATOM     20  C   UNL     1       2.699  -1.009  -2.681  1.00  0.00     0.012 C 
ENDBRANCH  11  18
ENDBRANCH   5   6
ENDBRANCH   1   5
BRANCH   3  21
ATOM     21  S   UNL     1      -2.661   0.615   1.196  1.00  0.00     0.409 S 
ATOM     22  O   UNL     1      -3.857   0.196   2.003  1.00  0.00    -0.165 OA
ATOM     23  O   UNL     1      -2.387   2.073   1.436  1.00  0.00    -0.165 OA
BRANCH  21  24
ATOM     24  O   UNL     1      -2.959   0.338  -0.463  1.00  0.00    -0.366 OA
BRANCH  24  25
ATOM     25  C   UNL     1      -4.259   0.309  -0.970  1.00  0.00     0.151 A 
ATOM     26  C   UNL     1      -4.863   1.499  -1.442  1.00  0.00    -0.001 A 
ATOM     27  C   UNL     1      -4.962  -0.918  -1.019  1.00  0.00    -0.001 A 
ATOM     28  C   UNL     1      -6.188   1.449  -1.914  1.00  0.00     0.008 A 
ATOM     29  C   UNL     1      -6.278  -0.931  -1.515  1.00  0.00     0.008 A 
ATOM     30  C   UNL     1      -6.886   0.244  -1.949  1.00  0.00     0.001 A 
BRANCH  26  31
ATOM     31  C   UNL     1      -4.110   2.822  -1.434  1.00  0.00     0.017 C 
ATOM     32  C   UNL     1      -4.027   3.429  -2.841  1.00  0.00     0.012 C 
ATOM     33  C   UNL     1      -4.747   3.806  -0.447  1.00  0.00     0.012 C 
ENDBRANCH  26  31
BRANCH  27  34
ATOM     34  C   UNL     1      -4.308  -2.218  -0.568  1.00  0.00     0.017 C 
ATOM     35  C   UNL     1      -5.094  -2.875   0.574  1.00  0.00     0.012 C 
ATOM     36  C   UNL     1      -4.140  -3.184  -1.747  1.00  0.00     0.012 C 
ENDBRANCH  27  34
ENDBRANCH  24  25
ENDBRANCH  21  24
ENDBRANCH   3  21
TORSDOF 10
