REMARK SMILES O=C1NCCN1CCN1CCC(c2cn(-c3ccc(F)cc3)c3ccc(Cl)cc23)CC1
REMARK SMILES IDX 12 1 11 2 10 3 9 4 31 5 30 6 13 7 15 8 14 9 23 10 29 11
REMARK SMILES IDX 24 12 28 13 25 14 26 15 27 16 16 17 20 18 19 19 18 20 21 21
REMARK SMILES IDX 17 22 22 23 8 24 7 25 6 26 5 27 2 28 4 29 3 30 1 31
REMARK H PARENT 3 32
REMARK Flexibility Score: inf
ROOT
ATOM      1  C   UNL     1      -0.367  -0.707  -0.450  1.00  0.00     0.024 C 
ATOM      2  C   UNL     1       0.175   0.556  -1.141  1.00  0.00     0.024 C 
ATOM      3  C   UNL     1       1.701   0.455  -1.353  1.00  0.00     0.085 C 
ATOM      4  N   UNL     1       2.344  -0.468  -0.390  1.00  0.00    -0.302 NA
ATOM      5  C   UNL     1       1.751  -0.391   0.958  1.00  0.00     0.085 C 
ATOM      6  C   UNL     1       0.299  -0.906   0.930  1.00  0.00     0.024 C 
ENDROOT
BRANCH   1   7
ATOM      7  C   UNL     1      -1.870  -0.679  -0.316  1.00  0.00    -0.019 A 
ATOM      8  N   UNL     1      -3.956   0.025   0.186  1.00  0.00    -0.316 N 
ATOM      9  C   UNL     1      -2.659   0.402   0.075  1.00  0.00     0.096 A 
ATOM     10  C   UNL     1      -3.993  -1.295  -0.097  1.00  0.00     0.053 A 
ATOM     11  C   UNL     1      -2.735  -1.757  -0.401  1.00  0.00     0.005 A 
ATOM     12  C   UNL     1      -5.088  -2.164  -0.031  1.00  0.00     0.029 A 
ATOM     13  C   UNL     1      -2.491  -3.105  -0.674  1.00  0.00     0.031 A 
ATOM     14  C   UNL     1      -4.872  -3.524  -0.312  1.00  0.00     0.023 A 
ATOM     15  C   UNL     1      -3.580  -3.993  -0.635  1.00  0.00     0.041 A 
ATOM     16  Cl  UNL     1      -3.328  -5.696  -0.975  1.00  0.00    -0.084 Cl
BRANCH   8  17
ATOM     17  C   UNL     1      -5.044   0.880   0.571  1.00  0.00     0.046 A 
ATOM     18  F   UNL     1      -8.163   3.412   1.655  1.00  0.00    -0.207 F 
ATOM     19  C   UNL     1      -7.147   2.588   1.301  1.00  0.00     0.123 A 
ATOM     20  C   UNL     1      -5.966   2.573   2.049  1.00  0.00     0.041 A 
ATOM     21  C   UNL     1      -7.277   1.758   0.185  1.00  0.00     0.041 A 
ATOM     22  C   UNL     1      -4.916   1.727   1.683  1.00  0.00     0.029 A 
ATOM     23  C   UNL     1      -6.229   0.909  -0.183  1.00  0.00     0.029 A 
ENDBRANCH   8  17
ENDBRANCH   1   7
BRANCH   4  24
ATOM     24  C   UNL     1       3.821  -0.383  -0.401  1.00  0.00     0.106 C 
BRANCH  24  25
ATOM     25  C   UNL     1       4.394   0.843   0.338  1.00  0.00     0.137 C 
BRANCH  25  26
ATOM     26  N   UNL     1       5.843   0.896   0.165  1.00  0.00    -0.322 N 
ATOM     27  C   UNL     1       6.832   0.525   1.169  1.00  0.00     0.142 C 
ATOM     28  C   UNL     1       6.532   1.302  -0.998  1.00  0.00     0.317 C 
ATOM     29  C   UNL     1       8.212   0.734   0.491  1.00  0.00     0.139 C 
ATOM     30  N   UNL     1       7.930   1.221  -0.853  1.00  0.00    -0.336 N 
ATOM     31  O   UNL     1       5.966   1.702  -2.047  1.00  0.00    -0.249 OA
ATOM     32  H   UNL     1       8.639   1.455  -1.583  1.00  0.00     0.165 HD
ENDBRANCH  25  26
ENDBRANCH  24  25
ENDBRANCH   4  24
TORSDOF 5
