REMARK SMILES C#C[C@]1(O)CC[C@H]2[C@@H]3CCC4=CC(=NO)CC[C@@H]4[C@H]3CC[C@@]21CC
REMARK SMILES IDX 7 1 6 2 5 3 3 4 22 5 21 6 20 7 19 8 18 9 17 10 16 11 13 12
REMARK SMILES IDX 12 13 11 14 10 15 9 16 8 17 14 18 23 19 24 20 4 21 2 23 1 24
REMARK SMILES IDX 15 25
REMARK H PARENT 4 22 15 26
REMARK Flexibility Score: inf
ROOT
ATOM      1  C   UNL     1      -1.385   1.179   0.363  1.00  0.00     0.003 C 
ATOM      2  C   UNL     1      -1.859   2.454   1.045  1.00  0.00     0.008 C 
ATOM      3  C   UNL     1      -3.234   2.085   1.629  1.00  0.00     0.050 C 
ATOM      4  C   UNL     1      -3.414   0.549   1.448  1.00  0.00     0.131 C 
ATOM      5  C   UNL     1      -1.948   0.032   1.234  1.00  0.00     0.013 C 
ATOM      6  C   UNL     1      -1.775  -1.270   0.406  1.00  0.00     0.011 C 
ATOM      7  C   UNL     1      -0.286  -1.512   0.065  1.00  0.00     0.005 C 
ATOM      8  C   UNL     1       0.360  -0.321  -0.700  1.00  0.00    -0.000 C 
ATOM      9  C   UNL     1       1.883  -0.541  -0.946  1.00  0.00     0.019 C 
ATOM     10  C   UNL     1       2.132  -1.715  -1.919  1.00  0.00     0.015 C 
ATOM     11  C   UNL     1       3.630  -1.969  -2.121  1.00  0.00     0.060 C 
ATOM     12  C   UNL     1       4.395  -0.695  -2.383  1.00  0.00     0.080 C 
ATOM     13  C   UNL     1       3.774   0.608  -2.089  1.00  0.00     0.027 C 
ATOM     14  C   UNL     1       2.580   0.713  -1.480  1.00  0.00    -0.065 C 
ATOM     15  C   UNL     1       2.087   2.102  -1.137  1.00  0.00     0.031 C 
ATOM     16  C   UNL     1       0.578   2.164  -0.913  1.00  0.00     0.008 C 
ATOM     17  C   UNL     1       0.118   1.038   0.025  1.00  0.00    -0.003 C 
ATOM     18  N   UNL     1       5.638  -0.709  -2.771  1.00  0.00    -0.094 NA
ENDROOT
BRANCH   5  19
ATOM     19  C   UNL     1      -1.211  -0.085   2.635  1.00  0.00     0.008 C 
ATOM     20  C   UNL     1      -1.460  -1.388   3.415  1.00  0.00     0.004 C 
ENDBRANCH   5  19
BRANCH   4  21
ATOM     21  O   UNL     1      -4.013  -0.024   2.585  1.00  0.00    -0.377 OA
ATOM     22  H   UNL     1      -4.861   0.464   2.762  1.00  0.00     0.212 HD
ENDBRANCH   4  21
BRANCH   4  23
ATOM     23  C   UNL     1      -4.287   0.284   0.276  1.00  0.00    -0.071 C 
ATOM     24  C   UNL     1      -5.003   0.068  -0.667  1.00  0.00     0.007 C 
ENDBRANCH   4  23
BRANCH  18  25
ATOM     25  O   UNL     1       6.376  -1.851  -3.016  1.00  0.00    -0.411 OA
ATOM     26  H   UNL     1       6.001  -2.781  -2.888  1.00  0.00     0.330 HD
ENDBRANCH  18  25
TORSDOF 4
