REMARK SMILES O=[N+]([O-])OCC(CO[N+](=O)[O-])(CO[N+](=O)[O-])CO[N+](=O)[O-]
REMARK SMILES IDX 6 1 5 2 4 3 2 4 3 5 1 6 7 7 8 8 9 9 11 10 10 11 12 12 13 13
REMARK SMILES IDX 14 14 16 15 15 16 17 17 18 18 19 19 21 20 20 21
REMARK H PARENT
REMARK Flexibility Score: inf
ROOT
ATOM      1  C   UNL     1      -0.113   0.309  -0.285  1.00  0.00     0.065 C 
ENDROOT
BRANCH   1   2
ATOM      2  C   UNL     1       0.834   0.542   0.923  1.00  0.00     0.221 C 
BRANCH   2   3
ATOM      3  O   UNL     1       0.218   0.142   2.145  1.00  0.00    -0.313 OA
BRANCH   3   4
ATOM      4  N   UNL     1       0.859   0.259   3.362  1.00  0.00     0.294 N 
ATOM      5  O   UNL     1       0.213  -0.142   4.507  1.00  0.00    -0.109 OA
ATOM      6  O   UNL     1       2.016   0.723   3.439  1.00  0.00    -0.109 OA
ENDBRANCH   3   4
ENDBRANCH   2   3
ENDBRANCH   1   2
BRANCH   1   7
ATOM      7  C   UNL     1      -0.571  -1.172  -0.349  1.00  0.00     0.221 C 
BRANCH   7   8
ATOM      8  O   UNL     1       0.545  -2.055  -0.396  1.00  0.00    -0.313 OA
BRANCH   8   9
ATOM      9  N   UNL     1       0.387  -3.424  -0.464  1.00  0.00     0.294 N 
ATOM     10  O   UNL     1      -0.867  -3.990  -0.489  1.00  0.00    -0.109 OA
ATOM     11  O   UNL     1       1.394  -4.158  -0.504  1.00  0.00    -0.109 OA
ENDBRANCH   8   9
ENDBRANCH   7   8
ENDBRANCH   1   7
BRANCH   1  12
ATOM     12  C   UNL     1       0.625   0.692  -1.595  1.00  0.00     0.221 C 
BRANCH  12  13
ATOM     13  O   UNL     1       1.814  -0.076  -1.766  1.00  0.00    -0.313 OA
BRANCH  13  14
ATOM     14  N   UNL     1       2.638   0.083  -2.863  1.00  0.00     0.294 N 
ATOM     15  O   UNL     1       3.770  -0.688  -2.974  1.00  0.00    -0.109 OA
ATOM     16  O   UNL     1       2.370   0.915  -3.754  1.00  0.00    -0.109 OA
ENDBRANCH  13  14
ENDBRANCH  12  13
ENDBRANCH   1  12
BRANCH   1  17
ATOM     17  C   UNL     1      -1.358   1.227  -0.164  1.00  0.00     0.221 C 
BRANCH  17  18
ATOM     18  O   UNL     1      -2.125   0.914   0.997  1.00  0.00    -0.313 OA
BRANCH  18  19
ATOM     19  N   UNL     1      -3.279   1.600   1.320  1.00  0.00     0.294 N 
ATOM     20  O   UNL     1      -3.975   1.254   2.453  1.00  0.00    -0.109 OA
ATOM     21  O   UNL     1      -3.699   2.529   0.599  1.00  0.00    -0.109 OA
ENDBRANCH  18  19
ENDBRANCH  17  18
ENDBRANCH   1  17
TORSDOF 12
