REMARK SMILES CC[C@H](CO)Nc1nc(NCc2ccccc2)c2ncn(C(C)C)c2n1
REMARK SMILES IDX 7 1 8 2 9 3 18 4 19 5 20 6 21 7 25 8 26 9 6 10 3 12 2 13
REMARK SMILES IDX 1 14 4 15 5 16 10 18 11 20 12 21 13 22 17 23 14 24 16 25
REMARK SMILES IDX 15 26 22 27 23 28 24 29
REMARK H PARENT 6 11 5 17 10 19
REMARK Flexibility Score: inf
ROOT
ATOM      1  C   UNL     1      -1.786  -0.131   0.121  1.00  0.00     0.227 A 
ATOM      2  N   UNL     1      -0.556  -0.734   0.213  1.00  0.00    -0.193 NA
ATOM      3  C   UNL     1       0.610  -0.039   0.049  1.00  0.00     0.160 A 
ATOM      4  C   UNL     1       0.500   1.329  -0.221  1.00  0.00     0.150 A 
ATOM      5  N   UNL     1       1.459   2.253  -0.427  1.00  0.00    -0.231 NA
ATOM      6  C   UNL     1       0.749   3.394  -0.637  1.00  0.00     0.202 A 
ATOM      7  N   UNL     1      -0.596   3.211  -0.569  1.00  0.00    -0.313 N 
ATOM      8  C   UNL     1      -0.725   1.904  -0.307  1.00  0.00     0.167 A 
ATOM      9  N   UNL     1      -1.874   1.207  -0.142  1.00  0.00    -0.193 NA
ENDROOT
BRANCH   1  10
ATOM     10  N   UNL     1      -2.988  -0.893   0.302  1.00  0.00    -0.349 N 
ATOM     11  H   UNL     1      -3.899  -0.380   0.292  1.00  0.00     0.164 HD
BRANCH  10  12
ATOM     12  C   UNL     1      -2.993  -2.319   0.648  1.00  0.00     0.107 C 
BRANCH  12  13
ATOM     13  C   UNL     1      -4.042  -3.064  -0.198  1.00  0.00     0.024 C 
ATOM     14  C   UNL     1      -3.707  -3.022  -1.688  1.00  0.00     0.006 C 
ENDBRANCH  12  13
BRANCH  12  15
ATOM     15  C   UNL     1      -3.291  -2.483   2.143  1.00  0.00     0.180 C 
BRANCH  15  16
ATOM     16  O   UNL     1      -2.291  -1.857   2.898  1.00  0.00    -0.394 OA
ATOM     17  H   UNL     1      -2.543  -1.984   3.849  1.00  0.00     0.210 HD
ENDBRANCH  15  16
ENDBRANCH  12  15
ENDBRANCH  10  12
ENDBRANCH   1  10
BRANCH   3  18
ATOM     18  N   UNL     1       1.864  -0.734   0.158  1.00  0.00    -0.364 N 
ATOM     19  H   UNL     1       1.823  -1.758   0.365  1.00  0.00     0.162 HD
BRANCH  18  20
ATOM     20  C   UNL     1       3.172  -0.096  -0.001  1.00  0.00     0.150 C 
BRANCH  20  21
ATOM     21  C   UNL     1       4.277  -1.103   0.173  1.00  0.00    -0.029 A 
ATOM     22  C   UNL     1       4.740  -1.844  -0.927  1.00  0.00     0.005 A 
ATOM     23  C   UNL     1       4.808  -1.359   1.448  1.00  0.00     0.005 A 
ATOM     24  C   UNL     1       5.740  -2.806  -0.757  1.00  0.00     0.000 A 
ATOM     25  C   UNL     1       5.808  -2.322   1.614  1.00  0.00     0.000 A 
ATOM     26  C   UNL     1       6.276  -3.043   0.512  1.00  0.00     0.000 A 
ENDBRANCH  20  21
ENDBRANCH  18  20
ENDBRANCH   3  18
BRANCH   7  27
ATOM     27  C   UNL     1      -1.658   4.207  -0.744  1.00  0.00     0.084 C 
ATOM     28  C   UNL     1      -1.542   5.302   0.320  1.00  0.00     0.031 C 
ATOM     29  C   UNL     1      -1.606   4.799  -2.155  1.00  0.00     0.031 C 
ENDBRANCH   7  27
TORSDOF 9
