REMARK SMILES NC(=O)N1CCC(CC(=O)N2CCC([C@H]3c4ncc(Br)cc4CCc4cc(Cl)cc(Br)c43)CC2)CC1
REMARK SMILES IDX 9 1 10 2 11 3 12 4 13 5 14 6 33 7 34 8 8 9 7 10 1 11 2 12
REMARK SMILES IDX 3 15 4 16 5 17 36 18 6 19 35 20 15 21 16 22 22 23 17 24
REMARK SMILES IDX 21 25 18 26 19 27 20 28 23 29 32 31 25 32 30 33 26 34 31 35
REMARK SMILES IDX 29 36 27 37 28 38 24 39
REMARK H PARENT 1 13 1 14
REMARK Flexibility Score: 90.00
ROOT
ATOM      1  C   UNL     1       1.727  -1.090  -1.039  1.00  0.00     0.222 C 
ATOM      2  O   UNL     1       1.722  -1.017  -2.298  1.00  0.00    -0.275 OA
ATOM      3  N   UNL     1       0.533  -0.754  -0.303  1.00  0.00    -0.343 N 
ATOM      4  C   UNL     1      -0.479   0.117  -0.921  1.00  0.00     0.120 C 
ATOM      5  C   UNL     1      -1.216   0.909   0.165  1.00  0.00     0.026 C 
ATOM      6  C   UNL     1      -1.904  -0.013   1.211  1.00  0.00     0.006 C 
ATOM      7  C   UNL     1      -1.229  -1.410   1.299  1.00  0.00     0.026 C 
ATOM      8  C   UNL     1       0.276  -1.339   1.023  1.00  0.00     0.120 C 
ENDROOT
BRANCH   1   9
ATOM      9  C   UNL     1       2.976  -1.565  -0.336  1.00  0.00     0.104 C 
BRANCH   9  10
ATOM     10  C   UNL     1       4.258  -0.915  -0.903  1.00  0.00     0.002 C 
ATOM     11  N   UNL     1       8.155   2.594  -0.262  1.00  0.00    -0.351 N 
ATOM     12  C   UNL     1       7.919   1.336  -0.901  1.00  0.00     0.314 C 
ATOM     13  H   UNL     1       9.030   3.125  -0.466  1.00  0.00     0.161 HD
ATOM     14  H   UNL     1       7.536   2.945   0.501  1.00  0.00     0.161 HD
ATOM     15  O   UNL     1       8.796   0.873  -1.680  1.00  0.00    -0.249 OA
ATOM     16  N   UNL     1       6.720   0.579  -0.644  1.00  0.00    -0.325 N 
ATOM     17  C   UNL     1       5.509   1.229  -0.121  1.00  0.00     0.121 C 
ATOM     18  C   UNL     1       6.775  -0.885  -0.777  1.00  0.00     0.121 C 
ATOM     19  C   UNL     1       4.239   0.635  -0.751  1.00  0.00     0.026 C 
ATOM     20  C   UNL     1       5.499  -1.549  -0.251  1.00  0.00     0.026 C 
ENDBRANCH   9  10
ENDBRANCH   1   9
BRANCH   6  21
ATOM     21  C   UNL     1      -3.476  -0.079   1.131  1.00  0.00     0.073 C 
BRANCH  21  22
ATOM     22  C   UNL     1      -4.110   1.314   1.095  1.00  0.00     0.051 A 
ATOM     23  C   UNL     1      -4.865   1.889   0.029  1.00  0.00    -0.024 A 
ATOM     24  N   UNL     1      -3.865   2.082   2.198  1.00  0.00    -0.259 NA
ATOM     25  C   UNL     1      -5.345   3.204   0.185  1.00  0.00     0.023 A 
ATOM     26  C   UNL     1      -4.312   3.354   2.342  1.00  0.00     0.127 A 
ATOM     27  C   UNL     1      -5.064   3.939   1.333  1.00  0.00     0.036 A 
ATOM     28  Br  UNL     1      -5.712   5.726   1.524  1.00  0.00    -0.049 Br
BRANCH  23  29
ATOM     29  C   UNL     1      -5.284   1.160  -1.223  1.00  0.00     0.042 CG0
ATOM     30  G   UNL     1      -4.172   0.313  -1.826  1.00  0.00     0.000 G0
ENDBRANCH  23  29
ENDBRANCH  21  22
BRANCH  21  31
ATOM     31  C   UNL     1      -4.037  -1.196   0.226  1.00  0.00    -0.021 A 
ATOM     32  C   UNL     1      -4.170  -1.039  -1.180  1.00  0.00    -0.041 A 
ATOM     33  C   UNL     1      -4.305  -2.488   0.778  1.00  0.00     0.023 A 
ATOM     34  C   UNL     1      -4.476  -2.149  -1.989  1.00  0.00     0.024 A 
ATOM     35  Br  UNL     1      -4.240  -2.897   2.659  1.00  0.00    -0.050 Br
ATOM     36  C   UNL     1      -4.618  -3.567  -0.053  1.00  0.00     0.036 A 
ATOM     37  C   UNL     1      -4.683  -3.404  -1.430  1.00  0.00     0.042 A 
ATOM     38  Cl  UNL     1      -5.067  -4.772  -2.459  1.00  0.00    -0.084 Cl
BRANCH  32  39
ATOM     39  C   UNL     1      -4.172   0.313  -1.826  1.00  0.00     0.041 CG0
ATOM     40  G   UNL     1      -5.284   1.160  -1.223  1.00  0.00     0.000 G0
ENDBRANCH  32  39
ENDBRANCH  21  31
ENDBRANCH   6  21
TORSDOF 3
