REMARK SMILES Nc1ccn([C@@H]2O[C@H](CO)[C@@H](O)/C2=C\F)c(=O)n1
REMARK SMILES IDX 6 1 7 2 8 3 11 4 13 5 14 6 15 7 5 8 2 9 18 10 3 11 16 12
REMARK SMILES IDX 4 13 17 14 1 15 9 18 10 19 12 21
REMARK H PARENT 1 16 1 17 10 20 12 22
REMARK Flexibility Score: inf
ROOT
ATOM      1  C   UNL     1      -0.316  -0.645   0.806  1.00  0.00     0.256 C 
ATOM      2  O   UNL     1      -1.153  -1.293  -0.128  1.00  0.00    -0.345 OA
ATOM      3  C   UNL     1      -2.399  -0.619  -0.123  1.00  0.00     0.180 C 
ATOM      4  C   UNL     1      -2.196   0.815   0.387  1.00  0.00     0.178 C 
ATOM      5  C   UNL     1      -0.895   0.699   1.062  1.00  0.00     0.039 C 
ATOM      6  C   UNL     1      -0.308   1.658   1.792  1.00  0.00     0.189 C 
ATOM      7  F   UNL     1      -0.898   2.872   1.955  1.00  0.00    -0.215 F 
ENDROOT
BRANCH   1   8
ATOM      8  N   UNL     1       1.060  -0.547   0.275  1.00  0.00    -0.268 N 
ATOM      9  C   UNL     1       3.645  -0.357  -0.676  1.00  0.00     0.130 A 
ATOM     10  N   UNL     1       2.595   0.074  -1.421  1.00  0.00    -0.176 NA
ATOM     11  C   UNL     1       3.414  -0.897   0.587  1.00  0.00     0.065 A 
ATOM     12  C   UNL     1       1.319  -0.011  -0.964  1.00  0.00     0.351 A 
ATOM     13  C   UNL     1       2.102  -0.982   1.048  1.00  0.00     0.098 A 
ATOM     14  O   UNL     1       0.382   0.411  -1.694  1.00  0.00    -0.245 OA
BRANCH   9  15
ATOM     15  N   UNL     1       4.972  -0.250  -1.190  1.00  0.00    -0.383 N 
ATOM     16  H   UNL     1       5.793  -0.575  -0.631  1.00  0.00     0.158 HD
ATOM     17  H   UNL     1       5.139   0.157  -2.137  1.00  0.00     0.158 HD
ENDBRANCH   9  15
ENDBRANCH   1   8
BRANCH   3  18
ATOM     18  C   UNL     1      -3.009  -0.658  -1.529  1.00  0.00     0.191 C 
BRANCH  18  19
ATOM     19  O   UNL     1      -4.318  -0.153  -1.514  1.00  0.00    -0.394 OA
ATOM     20  H   UNL     1      -4.247   0.832  -1.609  1.00  0.00     0.210 HD
ENDBRANCH  18  19
ENDBRANCH   3  18
BRANCH   4  21
ATOM     21  O   UNL     1      -3.209   1.153   1.300  1.00  0.00    -0.386 OA
ATOM     22  H   UNL     1      -3.334   2.136   1.242  1.00  0.00     0.211 HD
ENDBRANCH   4  21
TORSDOF 5
