REMARK SMILES C[C@]12O[C@H](C[C@]1(O)CO)n1c3ccccc3c3c4c(c5c6ccccc6n2c5c31)CNC4=O
REMARK SMILES IDX 1 1 2 2 3 3 4 4 5 5 6 6 10 7 11 8 16 9 15 10 14 11 13 12
REMARK SMILES IDX 12 13 17 14 29 15 28 16 20 17 19 18 18 19 32 20 33 21 31 22
REMARK SMILES IDX 30 23 21 24 22 25 23 26 24 27 25 28 26 29 27 30 7 32 8 34
REMARK SMILES IDX 9 35
REMARK H PARENT 31 31 7 33 9 36
REMARK Flexibility Score: inf
ROOT
ATOM      1  C   UNL     1      -3.133  -0.757   1.794  1.00  0.00     0.071 C 
ATOM      2  C   UNL     1      -2.133  -0.046   0.849  1.00  0.00     0.176 C 
ATOM      3  O   UNL     1      -1.662   1.067   1.574  1.00  0.00    -0.329 OA
ATOM      4  C   UNL     1      -1.180   1.998   0.637  1.00  0.00     0.225 C 
ATOM      5  C   UNL     1      -1.821   1.708  -0.723  1.00  0.00     0.098 C 
ATOM      6  C   UNL     1      -2.762   0.537  -0.446  1.00  0.00     0.140 C 
ATOM      7  N   UNL     1       0.270   1.851   0.567  1.00  0.00    -0.312 N 
ATOM      8  C   UNL     1       1.229   2.798   0.444  1.00  0.00     0.052 A 
ATOM      9  C   UNL     1       2.488   2.222   0.329  1.00  0.00     0.008 A 
ATOM     10  C   UNL     1       3.627   3.014   0.153  1.00  0.00     0.011 A 
ATOM     11  C   UNL     1       3.468   4.410   0.110  1.00  0.00     0.001 A 
ATOM     12  C   UNL     1       2.190   4.991   0.228  1.00  0.00     0.002 A 
ATOM     13  C   UNL     1       1.053   4.184   0.391  1.00  0.00     0.027 A 
ATOM     14  C   UNL     1       2.293   0.844   0.368  1.00  0.00     0.023 A 
ATOM     15  C   UNL     1       0.918   0.672   0.519  1.00  0.00     0.077 A 
ATOM     16  C   UNL     1       0.340  -0.609   0.483  1.00  0.00     0.077 A 
ATOM     17  C   UNL     1       1.158  -1.706   0.254  1.00  0.00     0.016 A 
ATOM     18  C   UNL     1       2.551  -1.561   0.123  1.00  0.00    -0.005 A 
ATOM     19  C   UNL     1       3.121  -0.288   0.196  1.00  0.00     0.055 A 
ATOM     20  C   UNL     1       4.545  -0.475  -0.004  1.00  0.00     0.252 C 
ATOM     21  O   UNL     1       5.433   0.413   0.037  1.00  0.00    -0.269 OA
ATOM     22  N   UNL     1       4.832  -1.850  -0.214  1.00  0.00    -0.348 N 
ATOM     23  C   UNL     1       3.587  -2.611  -0.157  1.00  0.00     0.153 C 
ATOM     24  C   UNL     1       0.313  -2.778   0.096  1.00  0.00     0.008 A 
ATOM     25  C   UNL     1       0.576  -4.111  -0.223  1.00  0.00     0.011 A 
ATOM     26  C   UNL     1      -0.514  -4.965  -0.437  1.00  0.00     0.001 A 
ATOM     27  C   UNL     1      -1.830  -4.472  -0.363  1.00  0.00     0.002 A 
ATOM     28  C   UNL     1      -2.073  -3.124  -0.048  1.00  0.00     0.027 A 
ATOM     29  C   UNL     1      -0.980  -2.286   0.224  1.00  0.00     0.052 A 
ATOM     30  N   UNL     1      -0.982  -0.949   0.525  1.00  0.00    -0.307 N 
ATOM     31  H   UNL     1       5.781  -2.253  -0.378  1.00  0.00     0.164 HD
ENDROOT
BRANCH   6  32
ATOM     32  O   UNL     1      -2.724  -0.413  -1.486  1.00  0.00    -0.382 OA
ATOM     33  H   UNL     1      -2.947   0.054  -2.333  1.00  0.00     0.211 HD
ENDBRANCH   6  32
BRANCH   6  34
ATOM     34  C   UNL     1      -4.218   1.047  -0.248  1.00  0.00     0.196 C 
BRANCH  34  35
ATOM     35  O   UNL     1      -4.670   1.708  -1.400  1.00  0.00    -0.393 OA
ATOM     36  H   UNL     1      -5.587   2.026  -1.194  1.00  0.00     0.210 HD
ENDBRANCH  34  35
ENDBRANCH   6  34
TORSDOF 3
