REMARK SMILES CO[C@@H]1[C@H](N(C)C(=O)c2ccccc2)C[C@H]2O[C@]1(C)n1c3ccccc3c3c4c(c5c6ccccc6n2c5c31)C(=O)NC4
REMARK SMILES IDX 5 1 6 2 4 3 3 4 18 5 15 6 17 7 19 8 20 9 16 10 21 11 39 12
REMARK SMILES IDX 37 13 26 14 22 15 27 16 38 17 36 18 25 19 23 20 28 21 30 22
REMARK SMILES IDX 31 23 35 24 24 25 29 26 43 27 32 28 34 29 40 30 42 31 33 32
REMARK SMILES IDX 41 33 2 35 1 36 7 37 8 38 9 39 10 40 14 41 11 42 13 43 12 44
REMARK H PARENT 42 34
REMARK Flexibility Score: inf
ROOT
ATOM      1  N   UNL     1       3.011  -0.214   0.021  1.00  0.00    -0.336 N 
ATOM      2  C   UNL     1       2.929   0.209   1.428  1.00  0.00     0.147 C 
ENDROOT
BRANCH   1   3
ATOM      3  C   UNL     1       1.834  -0.179  -0.872  1.00  0.00     0.123 C 
ATOM      4  C   UNL     1       1.019  -1.495  -0.850  1.00  0.00     0.193 C 
ATOM      5  C   UNL     1      -0.394  -1.306  -1.554  1.00  0.00     0.173 C 
ATOM      6  C   UNL     1       0.906   0.987  -0.562  1.00  0.00     0.083 C 
ATOM      7  O   UNL     1      -0.441  -0.119  -2.345  1.00  0.00    -0.329 OA
ATOM      8  C   UNL     1      -0.591  -2.421  -2.611  1.00  0.00     0.071 C 
ATOM      9  N   UNL     1      -1.534  -1.347  -0.577  1.00  0.00    -0.307 N 
ATOM     10  C   UNL     1      -0.137   1.096  -1.683  1.00  0.00     0.224 C 
ATOM     11  C   UNL     1      -2.052  -2.444   0.072  1.00  0.00     0.052 A 
ATOM     12  C   UNL     1      -2.394  -0.339  -0.228  1.00  0.00     0.077 A 
ATOM     13  N   UNL     1      -1.365   1.692  -1.182  1.00  0.00    -0.312 N 
ATOM     14  C   UNL     1      -3.210  -2.133   0.768  1.00  0.00     0.008 A 
ATOM     15  C   UNL     1      -1.551  -3.756   0.120  1.00  0.00     0.027 A 
ATOM     16  C   UNL     1      -3.432  -0.796   0.577  1.00  0.00     0.016 A 
ATOM     17  C   UNL     1      -2.340   1.034  -0.533  1.00  0.00     0.077 A 
ATOM     18  C   UNL     1      -1.698   3.004  -1.115  1.00  0.00     0.052 A 
ATOM     19  C   UNL     1      -3.922  -3.083   1.504  1.00  0.00     0.011 A 
ATOM     20  C   UNL     1      -2.250  -4.728   0.853  1.00  0.00     0.002 A 
ATOM     21  C   UNL     1      -4.438   0.068   1.044  1.00  0.00    -0.005 A 
ATOM     22  C   UNL     1      -3.317   1.914  -0.059  1.00  0.00     0.023 A 
ATOM     23  C   UNL     1      -2.896   3.183  -0.442  1.00  0.00     0.008 A 
ATOM     24  C   UNL     1      -0.958   4.094  -1.587  1.00  0.00     0.027 A 
ATOM     25  C   UNL     1      -3.432  -4.395   1.538  1.00  0.00     0.001 A 
ATOM     26  C   UNL     1      -4.390   1.421   0.713  1.00  0.00     0.055 A 
ATOM     27  C   UNL     1      -5.636  -0.245   1.894  1.00  0.00     0.153 C 
ATOM     28  C   UNL     1      -3.406   4.464  -0.205  1.00  0.00     0.011 A 
ATOM     29  C   UNL     1      -1.469   5.384  -1.376  1.00  0.00     0.002 A 
ATOM     30  C   UNL     1      -5.566   2.024   1.310  1.00  0.00     0.252 C 
ATOM     31  N   UNL     1      -6.307   1.045   2.023  1.00  0.00    -0.348 N 
ATOM     32  C   UNL     1      -2.684   5.568  -0.689  1.00  0.00     0.001 A 
ATOM     33  O   UNL     1      -5.951   3.213   1.179  1.00  0.00    -0.269 OA
ATOM     34  H   UNL     1      -7.211   1.211   2.518  1.00  0.00     0.164 HD
BRANCH   4  35
ATOM     35  O   UNL     1       0.839  -1.932   0.492  1.00  0.00    -0.374 OA
ATOM     36  C   UNL     1       1.705  -3.003   0.815  1.00  0.00     0.195 C 
ENDBRANCH   4  35
ENDBRANCH   1   3
BRANCH   1  37
ATOM     37  C   UNL     1       4.272  -0.671  -0.512  1.00  0.00     0.253 C 
ATOM     38  O   UNL     1       4.287  -1.631  -1.330  1.00  0.00    -0.269 OA
BRANCH  37  39
ATOM     39  C   UNL     1       5.552  -0.036  -0.127  1.00  0.00     0.040 A 
ATOM     40  C   UNL     1       6.725  -0.806  -0.042  1.00  0.00     0.014 A 
ATOM     41  C   UNL     1       5.622   1.347   0.117  1.00  0.00     0.014 A 
ATOM     42  C   UNL     1       7.938  -0.207   0.310  1.00  0.00     0.001 A 
ATOM     43  C   UNL     1       6.837   1.942   0.467  1.00  0.00     0.001 A 
ATOM     44  C   UNL     1       7.994   1.165   0.567  1.00  0.00     0.000 A 
ENDBRANCH  37  39
ENDBRANCH   1  37
TORSDOF 4
