REMARK SMILES c1ccc(C(c2ccccc2)N2CCN(CCCC3(c4ccccc4)OCCO3)CC2)cc1
REMARK SMILES IDX 17 1 16 2 15 3 14 4 30 5 13 6 31 7 12 8 5 9 4 10 3 11 32 12
REMARK SMILES IDX 2 13 33 14 1 15 6 16 7 17 11 18 8 19 10 20 9 21 18 22 19 23
REMARK SMILES IDX 26 24 29 25 27 26 28 27 20 28 21 29 25 30 22 31 24 32 23 33
REMARK H PARENT
REMARK Flexibility Score: inf
ROOT
ATOM      1  C   UNL     1       2.937  -0.797   1.466  1.00  0.00     0.021 C 
ENDROOT
BRANCH   1   2
ATOM      2  C   UNL     1       1.572  -1.238   2.017  1.00  0.00     0.085 C 
BRANCH   2   3
ATOM      3  N   UNL     1       0.478  -0.922   1.074  1.00  0.00    -0.301 NA
ATOM      4  C   UNL     1      -0.684  -1.793   1.322  1.00  0.00     0.100 C 
ATOM      5  C   UNL     1       0.067   0.491   1.177  1.00  0.00     0.100 C 
ATOM      6  C   UNL     1      -1.789  -1.495   0.305  1.00  0.00     0.101 C 
ATOM      7  C   UNL     1      -1.034   0.789   0.157  1.00  0.00     0.101 C 
ATOM      8  N   UNL     1      -2.215  -0.077   0.398  1.00  0.00    -0.290 NA
BRANCH   8   9
ATOM      9  C   UNL     1      -3.295   0.223  -0.587  1.00  0.00     0.117 C 
BRANCH   9  10
ATOM     10  C   UNL     1      -4.499  -0.692  -0.417  1.00  0.00    -0.026 A 
ATOM     11  C   UNL     1      -5.054  -1.337  -1.537  1.00  0.00     0.006 A 
ATOM     12  C   UNL     1      -5.089  -0.891   0.846  1.00  0.00     0.006 A 
ATOM     13  C   UNL     1      -6.161  -2.179  -1.392  1.00  0.00     0.000 A 
ATOM     14  C   UNL     1      -6.196  -1.736   0.985  1.00  0.00     0.000 A 
ATOM     15  C   UNL     1      -6.734  -2.375  -0.135  1.00  0.00     0.000 A 
ENDBRANCH   9  10
BRANCH   9  16
ATOM     16  C   UNL     1      -3.783   1.661  -0.485  1.00  0.00    -0.026 A 
ATOM     17  C   UNL     1      -3.981   2.280   0.765  1.00  0.00     0.006 A 
ATOM     18  C   UNL     1      -4.095   2.378  -1.655  1.00  0.00     0.006 A 
ATOM     19  C   UNL     1      -4.454   3.593   0.839  1.00  0.00     0.000 A 
ATOM     20  C   UNL     1      -4.564   3.693  -1.575  1.00  0.00     0.000 A 
ATOM     21  C   UNL     1      -4.741   4.301  -0.330  1.00  0.00     0.000 A 
ENDBRANCH   9  16
ENDBRANCH   8   9
ENDBRANCH   2   3
ENDBRANCH   1   2
BRANCH   1  22
ATOM     22  C   UNL     1       3.193  -1.358   0.054  1.00  0.00     0.072 C 
BRANCH  22  23
ATOM     23  C   UNL     1       4.618  -1.067  -0.471  1.00  0.00     0.195 C 
ATOM     24  O   UNL     1       4.741  -1.627  -1.764  1.00  0.00    -0.343 OA
ATOM     25  O   UNL     1       5.559  -1.650   0.411  1.00  0.00    -0.343 OA
ATOM     26  C   UNL     1       5.507  -2.777  -1.607  1.00  0.00     0.192 C 
ATOM     27  C   UNL     1       6.263  -2.595  -0.330  1.00  0.00     0.192 C 
BRANCH  23  28
ATOM     28  C   UNL     1       4.847   0.436  -0.579  1.00  0.00     0.011 A 
ATOM     29  C   UNL     1       5.673   1.124   0.335  1.00  0.00     0.009 A 
ATOM     30  C   UNL     1       4.189   1.176  -1.581  1.00  0.00     0.009 A 
ATOM     31  C   UNL     1       5.854   2.507   0.227  1.00  0.00     0.000 A 
ATOM     32  C   UNL     1       4.372   2.560  -1.682  1.00  0.00     0.000 A 
ATOM     33  C   UNL     1       5.206   3.224  -0.781  1.00  0.00     0.000 A 
ENDBRANCH  23  28
ENDBRANCH  22  23
ENDBRANCH   1  22
TORSDOF 8
