REMARK SMILES COc1ccc2cccc(CCNC(C)=O)c2c1
REMARK SMILES IDX 11 1 10 2 3 3 18 4 4 5 17 6 5 7 6 8 9 9 7 10 8 11 2 12 1 13
REMARK SMILES IDX 12 14 13 15 14 16 15 18 16 19
REMARK H PARENT 13 17
REMARK Flexibility Score: inf
ROOT
ATOM      1  C   UNL     1       1.503  -0.182   0.568  1.00  0.00     0.057 C 
ENDROOT
BRANCH   1   2
ATOM      2  C   UNL     1       0.376  -1.194   0.585  1.00  0.00    -0.038 A 
ATOM      3  C   UNL     1      -2.758   0.836   0.114  1.00  0.00     0.119 A 
ATOM      4  C   UNL     1      -1.405   0.508   0.256  1.00  0.00     0.055 A 
ATOM      5  C   UNL     1      -3.724  -0.183   0.146  1.00  0.00     0.047 A 
ATOM      6  C   UNL     1      -0.992  -0.832   0.432  1.00  0.00    -0.011 A 
ATOM      7  C   UNL     1      -3.339  -1.513   0.312  1.00  0.00     0.012 A 
ATOM      8  C   UNL     1      -1.985  -1.849   0.452  1.00  0.00    -0.018 A 
ATOM      9  C   UNL     1       0.714  -2.553   0.718  1.00  0.00     0.004 A 
ATOM     10  C   UNL     1      -1.613  -3.191   0.606  1.00  0.00     0.009 A 
ATOM     11  C   UNL     1      -0.271  -3.538   0.733  1.00  0.00     0.001 A 
BRANCH   3  12
ATOM     12  O   UNL     1      -3.099   2.186  -0.058  1.00  0.00    -0.497 OA
ATOM     13  C   UNL     1      -4.430   2.667  -0.215  1.00  0.00     0.278 C 
ENDBRANCH   3  12
ENDBRANCH   1   2
BRANCH   1  14
ATOM     14  C   UNL     1       1.893   0.175  -0.870  1.00  0.00     0.120 C 
BRANCH  14  15
ATOM     15  N   UNL     1       2.948   1.186  -0.878  1.00  0.00    -0.356 N 
ATOM     16  C   UNL     1       4.314   0.881  -0.564  1.00  0.00     0.216 C 
ATOM     17  H   UNL     1       2.704   2.158  -1.174  1.00  0.00     0.163 HD
ATOM     18  C   UNL     1       5.342   1.964  -0.582  1.00  0.00     0.114 C 
ATOM     19  O   UNL     1       4.662  -0.304  -0.310  1.00  0.00    -0.275 OA
ENDBRANCH  14  15
ENDBRANCH   1  14
TORSDOF 4
