REMARK SMILES CC(=O)N[C@@H](CS)C(=O)O
REMARK SMILES IDX 5 1 4 2 1 3 2 4 3 5 6 7 7 8 8 10 9 11 10 12
REMARK H PARENT 4 6 7 9 10 13
REMARK Flexibility Score: inf
ROOT
ATOM      1  C   UNL     1      -0.535   0.467  -0.716  1.00  0.00     0.201 C 
ENDROOT
BRANCH   1   2
ATOM      2  N   UNL     1       0.860   0.255  -0.316  1.00  0.00    -0.342 N 
ATOM      3  C   UNL     1       2.723  -0.622   1.164  1.00  0.00     0.114 C 
ATOM      4  C   UNL     1       1.269  -0.456   0.864  1.00  0.00     0.217 C 
ATOM      5  O   UNL     1       0.414  -0.919   1.666  1.00  0.00    -0.275 OA
ATOM      6  H   UNL     1       1.606   0.653  -0.930  1.00  0.00     0.164 HD
ENDBRANCH   1   2
BRANCH   1   7
ATOM      7  C   UNL     1      -1.226  -0.872  -1.027  1.00  0.00     0.103 C 
BRANCH   7   8
ATOM      8  S   UNL     1      -2.844  -0.602  -1.822  1.00  0.00    -0.177 SA
ATOM      9  H   UNL     1      -3.092  -1.984  -1.934  1.00  0.00     0.102 HD
ENDBRANCH   7   8
ENDBRANCH   1   7
BRANCH   1  10
ATOM     10  C   UNL     1      -1.260   1.287   0.320  1.00  0.00     0.327 C 
ATOM     11  O   UNL     1      -1.926   0.733   1.236  1.00  0.00    -0.250 OA
BRANCH  10  12
ATOM     12  O   UNL     1      -1.152   2.674   0.289  1.00  0.00    -0.480 OA
ATOM     13  H   UNL     1      -1.616   3.247   0.984  1.00  0.00     0.296 HD
ENDBRANCH  10  12
ENDBRANCH   1  10
TORSDOF 5
