REMARK SMILES CCC(=O)C1(c2cccc(O)c2)CCN(C)CC1
REMARK SMILES IDX 5 1 13 2 14 3 15 4 16 5 17 6 18 7 3 8 4 9 2 10 1 11 6 12
REMARK SMILES IDX 12 13 7 14 10 15 8 16 9 17 11 18
REMARK H PARENT 11 19
REMARK Flexibility Score: inf
ROOT
ATOM      1  C   UNL     1      -0.099   0.272  -0.149  1.00  0.00     0.056 C 
ATOM      2  C   UNL     1       1.054  -0.026   0.873  1.00  0.00     0.035 C 
ATOM      3  C   UNL     1       2.444  -0.046   0.215  1.00  0.00     0.085 C 
ATOM      4  N   UNL     1       2.544  -1.120  -0.801  1.00  0.00    -0.306 NA
ATOM      5  C   UNL     1       3.711  -0.896  -1.667  1.00  0.00     0.105 C 
ATOM      6  C   UNL     1       1.306  -1.321  -1.599  1.00  0.00     0.085 C 
ATOM      7  C   UNL     1       0.383  -0.088  -1.592  1.00  0.00     0.035 C 
ENDROOT
BRANCH   1   8
ATOM      8  C   UNL     1      -0.511   1.754  -0.197  1.00  0.00     0.143 C 
ATOM      9  O   UNL     1      -1.576   2.042  -0.729  1.00  0.00    -0.299 OA
BRANCH   8  10
ATOM     10  C   UNL     1       0.339   2.899   0.310  1.00  0.00     0.073 C 
ATOM     11  C   UNL     1      -0.282   3.526   1.554  1.00  0.00     0.012 C 
ENDBRANCH   8  10
ENDBRANCH   1   8
BRANCH   1  12
ATOM     12  C   UNL     1      -1.337  -0.532   0.316  1.00  0.00    -0.031 A 
ATOM     13  C   UNL     1      -1.909  -1.597  -0.422  1.00  0.00     0.051 A 
ATOM     14  C   UNL     1      -1.917  -0.211   1.564  1.00  0.00     0.005 A 
ATOM     15  C   UNL     1      -3.024  -2.293   0.066  1.00  0.00     0.115 A 
ATOM     16  C   UNL     1      -3.027  -0.908   2.045  1.00  0.00     0.004 A 
ATOM     17  C   UNL     1      -3.581  -1.945   1.297  1.00  0.00     0.046 A 
BRANCH  15  18
ATOM     18  O   UNL     1      -3.585  -3.338  -0.666  1.00  0.00    -0.508 OA
ATOM     19  H   UNL     1      -3.205  -3.622  -1.561  1.00  0.00     0.293 HD
ENDBRANCH  15  18
ENDBRANCH   1  12
TORSDOF 4
