REMARK SMILES Cc1cc2c(cc1CC(=O)c1sccc1S(=O)(=O)Nc1onc(C)c1Cl)OCO2
REMARK SMILES IDX 15 1 11 2 12 3 13 4 14 5 16 6 17 7 18 8 19 9 20 11 24 12
REMARK SMILES IDX 23 13 22 14 25 15 21 16 26 17 9 18 10 19 8 20 7 21 6 22 2 23
REMARK SMILES IDX 5 24 3 25 1 26 4 27 27 28 29 29 28 30
REMARK H PARENT 19 10
REMARK Flexibility Score: inf
ROOT
ATOM      1  C   UNL     1       0.966  -2.490   0.850  1.00  0.00     0.109 A 
ATOM      2  C   UNL     1      -0.424  -2.630   0.830  1.00  0.00     0.091 A 
ATOM      3  S   UNL     1      -0.969  -2.631   2.422  1.00  0.00    -0.139 S 
ATOM      4  C   UNL     1       0.537  -2.472   3.148  1.00  0.00     0.067 A 
ATOM      5  C   UNL     1       1.496  -2.407   2.147  1.00  0.00     0.035 A 
ENDROOT
BRANCH   1   6
ATOM      6  S   UNL     1       1.977  -2.314  -0.582  1.00  0.00     0.265 S 
ATOM      7  O   UNL     1       1.279  -1.496  -1.632  1.00  0.00    -0.201 OA
ATOM      8  O   UNL     1       2.275  -3.675  -1.144  1.00  0.00    -0.201 OA
BRANCH   6   9
ATOM      9  N   UNL     1       3.470  -1.539  -0.164  1.00  0.00    -0.246 N 
ATOM     10  H   UNL     1       4.320  -2.143  -0.111  1.00  0.00     0.183 HD
BRANCH   9  11
ATOM     11  C   UNL     1       3.658  -0.118  -0.141  1.00  0.00     0.257 A 
ATOM     12  C   UNL     1       2.931   3.421   0.222  1.00  0.00     0.072 C 
ATOM     13  C   UNL     1       3.450   2.037   0.012  1.00  0.00     0.101 A 
ATOM     14  N   UNL     1       4.743   1.745  -0.230  1.00  0.00    -0.081 NA
ATOM     15  C   UNL     1       2.715   0.873   0.081  1.00  0.00     0.129 A 
ATOM     16  O   UNL     1       4.829   0.449  -0.314  1.00  0.00    -0.336 OA
ATOM     17  Cl  UNL     1       1.016   0.748   0.506  1.00  0.00    -0.076 Cl
ENDBRANCH   9  11
ENDBRANCH   6   9
ENDBRANCH   1   6
BRANCH   2  18
ATOM     18  C   UNL     1      -1.291  -2.756  -0.356  1.00  0.00     0.178 C 
ATOM     19  O   UNL     1      -0.881  -3.388  -1.366  1.00  0.00    -0.293 OA
BRANCH  18  20
ATOM     20  C   UNL     1      -2.656  -2.128  -0.387  1.00  0.00     0.118 C 
BRANCH  20  21
ATOM     21  C   UNL     1      -2.542  -0.620  -0.441  1.00  0.00    -0.033 A 
ATOM     22  C   UNL     1      -2.659   0.110   0.766  1.00  0.00     0.055 A 
ATOM     23  C   UNL     1      -2.256   0.079  -1.660  1.00  0.00    -0.044 A 
ATOM     24  C   UNL     1      -2.483   1.486   0.728  1.00  0.00     0.166 A 
ATOM     25  C   UNL     1      -2.083   1.483  -1.637  1.00  0.00     0.054 A 
ATOM     26  C   UNL     1      -2.121  -0.645  -2.974  1.00  0.00     0.045 C 
ATOM     27  C   UNL     1      -2.204   2.143  -0.422  1.00  0.00     0.166 A 
ATOM     28  O   UNL     1      -2.535   2.388   1.773  1.00  0.00    -0.454 OA
ATOM     29  O   UNL     1      -2.064   3.491  -0.160  1.00  0.00    -0.454 OA
ATOM     30  C   UNL     1      -2.261   3.693   1.246  1.00  0.00     0.468 C 
ENDBRANCH  20  21
ENDBRANCH  18  20
ENDBRANCH   2  18
TORSDOF 6
