REMARK SMILES O=C(O)c1cccc(-c2cccc(NCCNC[C@H](O)c3cccc(Cl)c3)c2)c1
REMARK SMILES IDX 15 1 16 2 17 3 18 5 19 6 20 7 21 9 22 10 27 11 23 12 25 13
REMARK SMILES IDX 24 14 26 15 14 16 13 18 28 19 12 20 9 21 11 22 10 23 8 24
REMARK SMILES IDX 29 25 7 26 4 27 6 28 5 29 2 30 1 31 3 32
REMARK H PARENT 17 4 20 8 14 17 3 33
REMARK Flexibility Score: inf
ROOT
ATOM      1  C   UNL     1       0.652   1.729   0.580  1.00  0.00     0.128 C 
ENDROOT
BRANCH   1   2
ATOM      2  C   UNL     1       1.101   0.321   0.179  1.00  0.00     0.102 C 
BRANCH   2   3
ATOM      3  N   UNL     1       1.726   0.350  -1.152  1.00  0.00    -0.312 NA
ATOM      4  H   UNL     1       1.527  -0.551  -1.647  1.00  0.00     0.122 HD
BRANCH   3   5
ATOM      5  C   UNL     1       3.180   0.595  -1.097  1.00  0.00     0.117 C 
BRANCH   5   6
ATOM      6  C   UNL     1       4.002  -0.710  -1.113  1.00  0.00     0.158 C 
BRANCH   6   7
ATOM      7  O   UNL     1       3.688  -1.492   0.010  1.00  0.00    -0.387 OA
ATOM      8  H   UNL     1       4.049  -2.400  -0.163  1.00  0.00     0.211 HD
ENDBRANCH   6   7
BRANCH   6   9
ATOM      9  C   UNL     1       5.481  -0.389  -1.128  1.00  0.00    -0.017 A 
ATOM     10  C   UNL     1       6.135   0.032   0.045  1.00  0.00     0.006 A 
ATOM     11  C   UNL     1       6.208  -0.458  -2.330  1.00  0.00     0.027 A 
ATOM     12  C   UNL     1       7.495   0.355   0.018  1.00  0.00     0.002 A 
ATOM     13  C   UNL     1       7.569  -0.134  -2.352  1.00  0.00     0.041 A 
ATOM     14  C   UNL     1       8.212   0.270  -1.178  1.00  0.00     0.020 A 
ATOM     15  Cl  UNL     1       8.469  -0.229  -3.855  1.00  0.00    -0.084 Cl
ENDBRANCH   6   9
ENDBRANCH   5   6
ENDBRANCH   3   5
ENDBRANCH   2   3
ENDBRANCH   1   2
BRANCH   1  16
ATOM     16  N   UNL     1      -0.001   1.710   1.890  1.00  0.00    -0.384 N 
ATOM     17  H   UNL     1       0.533   2.120   2.690  1.00  0.00     0.160 HD
BRANCH  16  18
ATOM     18  C   UNL     1      -1.315   1.175   2.148  1.00  0.00     0.035 A 
ATOM     19  C   UNL     1      -2.177   0.776   1.108  1.00  0.00     0.034 A 
ATOM     20  C   UNL     1      -1.754   1.062   3.476  1.00  0.00     0.026 A 
ATOM     21  C   UNL     1      -3.454   0.254   1.390  1.00  0.00    -0.016 A 
ATOM     22  C   UNL     1      -3.021   0.550   3.763  1.00  0.00     0.003 A 
ATOM     23  C   UNL     1      -3.866   0.146   2.729  1.00  0.00     0.009 A 
BRANCH  21  24
ATOM     24  C   UNL     1      -4.351  -0.178   0.288  1.00  0.00    -0.017 A 
ATOM     25  C   UNL     1      -5.727   0.120   0.327  1.00  0.00     0.024 A 
ATOM     26  C   UNL     1      -3.839  -0.891  -0.809  1.00  0.00     0.009 A 
ATOM     27  C   UNL     1      -6.582  -0.287  -0.713  1.00  0.00     0.060 A 
ATOM     28  C   UNL     1      -4.682  -1.298  -1.844  1.00  0.00     0.002 A 
ATOM     29  C   UNL     1      -6.045  -0.999  -1.799  1.00  0.00     0.016 A 
BRANCH  27  30
ATOM     30  C   UNL     1      -8.025   0.035  -0.662  1.00  0.00     0.335 C 
ATOM     31  O   UNL     1      -8.793  -0.325  -1.595  1.00  0.00    -0.246 OA
BRANCH  30  32
ATOM     32  O   UNL     1      -8.551   0.739   0.419  1.00  0.00    -0.478 OA
ATOM     33  H   UNL     1      -9.537   0.964   0.463  1.00  0.00     0.297 HD
ENDBRANCH  30  32
ENDBRANCH  27  30
ENDBRANCH  21  24
ENDBRANCH  16  18
ENDBRANCH   1  16
TORSDOF 11
