REMARK SMILES CNC(=O)c1ccccc1Sc1ccc2c(/C=C/c3ccccn3)n[nH]c2c1
REMARK SMILES IDX 12 1 13 2 14 3 15 4 27 5 26 6 25 7 16 8 28 9 11 11 10 12
REMARK SMILES IDX 5 13 6 14 9 15 7 16 8 17 3 18 1 19 2 20 4 22 17 23 18 24
REMARK SMILES IDX 19 25 20 26 24 27 21 28 23 29 22 30
REMARK H PARENT 26 10 2 21
REMARK Flexibility Score: inf
ROOT
ATOM      1  C   UNL     1      -1.549  -0.462  -1.187  1.00  0.00     0.014 A 
ATOM      2  C   UNL     1      -0.580  -1.386  -0.729  1.00  0.00     0.016 A 
ATOM      3  C   UNL     1       0.713  -0.953  -0.381  1.00  0.00     0.014 A 
ATOM      4  C   UNL     1       1.007   0.404  -0.534  1.00  0.00     0.027 A 
ATOM      5  C   UNL     1       0.064   1.297  -0.962  1.00  0.00     0.067 A 
ATOM      6  N   UNL     1       0.571   2.539  -0.943  1.00  0.00    -0.277 N 
ATOM      7  N   UNL     1       1.825   2.475  -0.511  1.00  0.00    -0.175 NA
ATOM      8  C   UNL     1       2.129   1.178  -0.266  1.00  0.00     0.093 A 
ATOM      9  C   UNL     1      -1.227   0.904  -1.307  1.00  0.00     0.043 A 
ATOM     10  H   UNL     1       0.078   3.422  -1.203  1.00  0.00     0.190 HD
ENDROOT
BRANCH   1  11
ATOM     11  S   UNL     1      -3.194  -1.030  -1.616  1.00  0.00    -0.089 SA
BRANCH  11  12
ATOM     12  C   UNL     1      -3.797  -0.895   0.076  1.00  0.00     0.025 A 
ATOM     13  C   UNL     1      -4.341   0.306   0.594  1.00  0.00     0.053 A 
ATOM     14  C   UNL     1      -4.710   0.360   1.950  1.00  0.00     0.015 A 
ATOM     15  C   UNL     1      -3.672  -2.016   0.909  1.00  0.00     0.016 A 
ATOM     16  C   UNL     1      -4.573  -0.763   2.769  1.00  0.00     0.001 A 
ATOM     17  C   UNL     1      -4.060  -1.951   2.249  1.00  0.00     0.001 A 
BRANCH  13  18
ATOM     18  C   UNL     1      -4.520   1.514  -0.238  1.00  0.00     0.252 C 
ATOM     19  C   UNL     1      -5.199   2.577  -2.426  1.00  0.00     0.143 C 
ATOM     20  N   UNL     1      -5.141   1.431  -1.528  1.00  0.00    -0.355 N 
ATOM     21  H   UNL     1      -5.587   0.536  -1.830  1.00  0.00     0.163 HD
ATOM     22  O   UNL     1      -4.156   2.634   0.213  1.00  0.00    -0.269 OA
ENDBRANCH  13  18
ENDBRANCH  11  12
ENDBRANCH   1  11
BRANCH   8  23
ATOM     23  C   UNL     1       3.445   0.751   0.243  1.00  0.00     0.033 C 
ATOM     24  C   UNL     1       4.003  -0.419  -0.098  1.00  0.00     0.030 C 
BRANCH  24  25
ATOM     25  C   UNL     1       5.323  -0.900   0.375  1.00  0.00     0.063 A 
ATOM     26  C   UNL     1       6.190  -0.131   1.180  1.00  0.00     0.028 A 
ATOM     27  N   UNL     1       5.709  -2.154   0.002  1.00  0.00    -0.257 NA
ATOM     28  C   UNL     1       7.415  -0.671   1.580  1.00  0.00     0.004 A 
ATOM     29  C   UNL     1       6.897  -2.694   0.385  1.00  0.00     0.111 A 
ATOM     30  C   UNL     1       7.772  -1.960   1.185  1.00  0.00     0.020 A 
ENDBRANCH  24  25
ENDBRANCH   8  23
TORSDOF 5
