REMARK SMILES CCCC(=O)O[C@]1(C(=O)COC(C)=O)CC[C@H]2[C@@H]3C[C@H](F)C4=CC(=O)C=C[C@]4(C)[C@@]3(F)[C@@H](O)C[C@@]21C
REMARK SMILES IDX 17 1 16 2 15 3 7 4 35 5 36 6 34 7 32 8 30 9 31 10 18 11
REMARK SMILES IDX 19 12 20 13 21 14 22 15 23 16 24 17 25 18 26 19 27 20 28 21
REMARK SMILES IDX 29 22 6 23 4 24 5 25 3 26 2 27 1 28 8 29 9 30 10 31 11 32
REMARK SMILES IDX 12 33 13 34 14 35 33 36
REMARK H PARENT 33 37
REMARK Flexibility Score: inf
ROOT
ATOM      1  C   UNL     1       0.119  -0.980   0.227  1.00  0.00     0.006 C 
ATOM      2  C   UNL     1      -0.927  -2.086   0.235  1.00  0.00     0.009 C 
ATOM      3  C   UNL     1      -2.204  -1.412  -0.303  1.00  0.00     0.058 C 
ATOM      4  C   UNL     1      -1.806   0.039  -0.735  1.00  0.00     0.179 C 
ATOM      5  C   UNL     1      -0.265  -0.092  -0.965  1.00  0.00     0.021 C 
ATOM      6  C   UNL     1       0.002  -0.770  -2.353  1.00  0.00     0.016 C 
ATOM      7  C   UNL     1       0.543   1.230  -0.850  1.00  0.00     0.047 C 
ATOM      8  C   UNL     1       2.079   0.992  -0.762  1.00  0.00     0.154 C 
ATOM      9  C   UNL     1       2.476  -0.044   0.356  1.00  0.00     0.152 C 
ATOM     10  F   UNL     1       2.138   0.568   1.561  1.00  0.00    -0.239 F 
ATOM     11  C   UNL     1       1.619  -1.362   0.254  1.00  0.00     0.037 C 
ATOM     12  C   UNL     1       1.911  -2.300   1.446  1.00  0.00     0.049 C 
ATOM     13  C   UNL     1       3.395  -2.648   1.539  1.00  0.00     0.194 C 
ATOM     14  F   UNL     1       3.593  -3.454   2.649  1.00  0.00    -0.243 F 
ATOM     15  C   UNL     1       4.217  -1.376   1.595  1.00  0.00    -0.020 C 
ATOM     16  C   UNL     1       5.089  -1.174   2.600  1.00  0.00     0.055 C 
ATOM     17  C   UNL     1       5.852   0.069   2.697  1.00  0.00     0.178 C 
ATOM     18  O   UNL     1       6.673   0.238   3.637  1.00  0.00    -0.290 OA
ATOM     19  C   UNL     1       5.644   1.122   1.709  1.00  0.00     0.048 C 
ATOM     20  C   UNL     1       4.793   0.945   0.699  1.00  0.00    -0.009 C 
ATOM     21  C   UNL     1       4.027  -0.357   0.455  1.00  0.00     0.047 C 
ATOM     22  C   UNL     1       4.631  -0.982  -0.829  1.00  0.00     0.024 C 
ENDROOT
BRANCH   4  23
ATOM     23  O   UNL     1      -2.032   0.934   0.366  1.00  0.00    -0.450 OA
BRANCH  23  24
ATOM     24  C   UNL     1      -3.282   1.252   0.915  1.00  0.00     0.306 C 
ATOM     25  O   UNL     1      -4.347   0.813   0.404  1.00  0.00    -0.252 OA
BRANCH  24  26
ATOM     26  C   UNL     1      -3.343   2.123   2.131  1.00  0.00     0.122 C 
BRANCH  26  27
ATOM     27  C   UNL     1      -2.515   1.543   3.286  1.00  0.00     0.008 C 
ATOM     28  C   UNL     1      -3.084   0.223   3.804  1.00  0.00     0.004 C 
ENDBRANCH  26  27
ENDBRANCH  24  26
ENDBRANCH  23  24
ENDBRANCH   4  23
BRANCH   4  29
ATOM     29  C   UNL     1      -2.538   0.590  -1.962  1.00  0.00     0.214 C 
ATOM     30  O   UNL     1      -2.278   1.727  -2.329  1.00  0.00    -0.291 OA
BRANCH  29  31
ATOM     31  C   UNL     1      -3.561  -0.209  -2.735  1.00  0.00     0.312 C 
BRANCH  31  32
ATOM     32  O   UNL     1      -4.203   0.586  -3.733  1.00  0.00    -0.458 OA
BRANCH  32  33
ATOM     33  C   UNL     1      -5.167   1.557  -3.440  1.00  0.00     0.303 C 
ATOM     34  C   UNL     1      -5.759   2.363  -4.545  1.00  0.00     0.139 C 
ATOM     35  O   UNL     1      -5.559   1.742  -2.256  1.00  0.00    -0.253 OA
ENDBRANCH  32  33
ENDBRANCH  31  32
ENDBRANCH  29  31
ENDBRANCH   4  29
BRANCH   8  36
ATOM     36  O   UNL     1       2.579   0.613  -2.016  1.00  0.00    -0.390 OA
ATOM     37  H   UNL     1       2.570   1.422  -2.591  1.00  0.00     0.211 HD
ENDBRANCH   8  36
TORSDOF 9
