REMARK SMILES CC(=O)OC(C)C[N+](C)(C)C
REMARK SMILES IDX 6 1 5 2 7 3 8 4 9 5 10 6 11 7 4 8 2 9 1 10 3 11
REMARK H PARENT
REMARK Flexibility Score: inf
ROOT
ATOM      1  C   UNL     1       0.186  -2.241   0.799  1.00  0.00     0.059 C 
ATOM      2  C   UNL     1       0.567  -1.359  -0.389  1.00  0.00     0.228 C 
ENDROOT
BRANCH   2   3
ATOM      3  C   UNL     1      -0.615  -0.559  -1.021  1.00  0.00     0.308 C 
BRANCH   3   4
ATOM      4  N   UNL     1      -1.355   0.442  -0.177  1.00  0.00    -0.328 N 
ATOM      5  C   UNL     1      -2.330  -0.219   0.728  1.00  0.00     0.334 C 
ATOM      6  C   UNL     1      -2.129   1.316  -1.096  1.00  0.00     0.334 C 
ATOM      7  C   UNL     1      -0.449   1.306   0.614  1.00  0.00     0.334 C 
ENDBRANCH   3   4
ENDBRANCH   2   3
BRANCH   2   8
ATOM      8  O   UNL     1       1.663  -0.516  -0.030  1.00  0.00    -0.457 OA
BRANCH   8   9
ATOM      9  C   UNL     1       2.530   0.072  -0.958  1.00  0.00     0.303 C 
ATOM     10  C   UNL     1       3.601   0.990  -0.478  1.00  0.00     0.139 C 
ATOM     11  O   UNL     1       2.446  -0.200  -2.186  1.00  0.00    -0.253 OA
ENDBRANCH   8   9
ENDBRANCH   2   8
TORSDOF 4
