REMARK SMILES COc1cc(Cc2cnc(N)nc2N)c2c(c1OC)OC(C1CC1)C=C2
REMARK SMILES IDX 6 1 5 2 3 3 4 4 17 5 16 6 15 7 20 8 26 9 21 10 25 11 2 12
REMARK SMILES IDX 1 13 18 14 19 15 22 16 23 17 24 18 7 19 8 20 13 21 9 22
REMARK SMILES IDX 12 23 10 24 14 25 11 28
REMARK H PARENT 14 26 14 27 11 29 11 30
REMARK Flexibility Score: inf
ROOT
ATOM      1  C   UNL     1      -1.932  -0.480   1.688  1.00  0.00     0.077 C 
ENDROOT
BRANCH   1   2
ATOM      2  C   UNL     1      -0.740   0.212   1.051  1.00  0.00    -0.028 A 
ATOM      3  C   UNL     1       0.157   2.281   0.078  1.00  0.00     0.164 A 
ATOM      4  C   UNL     1      -0.880   1.565   0.704  1.00  0.00     0.055 A 
ATOM      5  C   UNL     1       1.379   1.624  -0.194  1.00  0.00     0.203 A 
ATOM      6  C   UNL     1       1.532   0.280   0.168  1.00  0.00     0.173 A 
ATOM      7  C   UNL     1       0.486  -0.442   0.772  1.00  0.00     0.024 A 
ATOM      8  O   UNL     1       2.746  -0.362  -0.103  1.00  0.00    -0.481 OA
ATOM      9  C   UNL     1       0.728  -1.883   1.044  1.00  0.00     0.012 C 
ATOM     10  C   UNL     1       3.134  -1.580   0.534  1.00  0.00     0.199 C 
ATOM     11  C   UNL     1       1.935  -2.427   0.870  1.00  0.00     0.018 C 
BRANCH   3  12
ATOM     12  O   UNL     1      -0.009   3.630  -0.274  1.00  0.00    -0.493 OA
ATOM     13  C   UNL     1      -1.196   4.390  -0.068  1.00  0.00     0.278 C 
ENDBRANCH   3  12
BRANCH   5  14
ATOM     14  O   UNL     1       2.482   2.242  -0.815  1.00  0.00    -0.490 OA
ATOM     15  C   UNL     1       2.547   3.582  -1.290  1.00  0.00     0.278 C 
ENDBRANCH   5  14
BRANCH  10  16
ATOM     16  C   UNL     1       4.070  -2.350  -0.405  1.00  0.00     0.034 C 
ATOM     17  C   UNL     1       5.529  -1.922  -0.352  1.00  0.00     0.008 C 
ATOM     18  C   UNL     1       5.101  -3.241   0.274  1.00  0.00     0.008 C 
ENDBRANCH  10  16
ENDBRANCH   1   2
BRANCH   1  19
ATOM     19  C   UNL     1      -2.976  -0.826   0.645  1.00  0.00     0.017 A 
ATOM     20  C   UNL     1      -2.799  -1.987  -0.124  1.00  0.00     0.123 A 
ATOM     21  C   UNL     1      -4.095  -0.008   0.342  1.00  0.00     0.132 A 
ATOM     22  N   UNL     1      -3.673  -2.301  -1.112  1.00  0.00    -0.221 NA
ATOM     23  N   UNL     1      -4.932  -0.373  -0.666  1.00  0.00    -0.196 NA
ATOM     24  C   UNL     1      -4.731  -1.503  -1.389  1.00  0.00     0.221 A 
BRANCH  21  25
ATOM     25  N   UNL     1      -4.396   1.194   1.062  1.00  0.00    -0.383 N 
ATOM     26  H   UNL     1      -3.888   1.499   1.918  1.00  0.00     0.158 HD
ATOM     27  H   UNL     1      -5.195   1.791   0.753  1.00  0.00     0.158 HD
ENDBRANCH  21  25
BRANCH  24  28
ATOM     28  N   UNL     1      -5.633  -1.850  -2.437  1.00  0.00    -0.368 N 
ATOM     29  H   UNL     1      -5.478  -2.712  -3.005  1.00  0.00     0.159 HD
ATOM     30  H   UNL     1      -6.459  -1.246  -2.644  1.00  0.00     0.159 HD
ENDBRANCH  24  28
ENDBRANCH   1  19
TORSDOF 7
