REMARK SMILES C[N+]1(C)CCN(CC(O)(c2ccccc2)C2CCCCC2)CC1
REMARK SMILES IDX 7 1 6 2 1 3 2 4 3 5 4 6 23 7 5 8 22 9 8 10 9 11 16 13 17 14
REMARK SMILES IDX 21 15 18 16 20 17 19 18 10 19 11 20 15 21 12 22 14 23 13 24
REMARK H PARENT 9 12
REMARK Flexibility Score: inf
ROOT
ATOM      1  C   UNL     1       0.423   0.896  -0.504  1.00  0.00     0.125 C 
ENDROOT
BRANCH   1   2
ATOM      2  N   UNL     1       1.503   0.185   0.226  1.00  0.00    -0.289 NA
ATOM      3  C   UNL     1       4.691  -2.284   0.359  1.00  0.00     0.334 C 
ATOM      4  N   UNL     1       4.140  -1.121  -0.380  1.00  0.00    -0.326 N 
ATOM      5  C   UNL     1       5.120  -0.741  -1.428  1.00  0.00     0.334 C 
ATOM      6  C   UNL     1       3.960   0.021   0.574  1.00  0.00     0.279 C 
ATOM      7  C   UNL     1       2.854  -1.512  -1.042  1.00  0.00     0.279 C 
ATOM      8  C   UNL     1       2.786   0.925   0.174  1.00  0.00     0.146 C 
ATOM      9  C   UNL     1       1.632  -1.249  -0.144  1.00  0.00     0.146 C 
ENDBRANCH   1   2
BRANCH   1  10
ATOM     10  C   UNL     1      -0.837   1.107   0.399  1.00  0.00     0.105 C 
BRANCH  10  11
ATOM     11  O   UNL     1      -0.377   1.702   1.598  1.00  0.00    -0.384 OA
ATOM     12  H   UNL     1       0.106   1.019   2.133  1.00  0.00     0.211 HD
ENDBRANCH  10  11
BRANCH  10  13
ATOM     13  C   UNL     1      -1.567  -0.252   0.732  1.00  0.00     0.027 C 
ATOM     14  C   UNL     1      -2.637  -0.090   1.842  1.00  0.00     0.007 C 
ATOM     15  C   UNL     1      -2.218  -0.942  -0.495  1.00  0.00     0.007 C 
ATOM     16  C   UNL     1      -3.238  -1.447   2.231  1.00  0.00     0.000 C 
ATOM     17  C   UNL     1      -2.807  -2.304  -0.106  1.00  0.00     0.000 C 
ATOM     18  C   UNL     1      -3.843  -2.154   1.013  1.00  0.00     0.000 C 
ENDBRANCH  10  13
BRANCH  10  19
ATOM     19  C   UNL     1      -1.816   2.098  -0.262  1.00  0.00    -0.015 A 
ATOM     20  C   UNL     1      -2.061   2.091  -1.655  1.00  0.00     0.007 A 
ATOM     21  C   UNL     1      -2.544   3.013   0.532  1.00  0.00     0.007 A 
ATOM     22  C   UNL     1      -2.973   2.983  -2.227  1.00  0.00     0.000 A 
ATOM     23  C   UNL     1      -3.454   3.902  -0.048  1.00  0.00     0.000 A 
ATOM     24  C   UNL     1      -3.665   3.889  -1.426  1.00  0.00     0.000 A 
ENDBRANCH  10  19
ENDBRANCH   1  10
TORSDOF 5
