REMARK SMILES Oc1ccc2c(c1)CC[C@H](c1ccccc1)[C@@H]2c1ccc(OCCN2CCCC2)cc1
REMARK SMILES IDX 22 1 21 2 18 3 19 4 31 5 20 6 30 7 17 8 10 9 9 10 8 11 5 12
REMARK SMILES IDX 6 13 4 14 7 15 3 16 2 17 11 18 12 19 16 20 13 21 15 22 14 23
REMARK SMILES IDX 1 24 23 26 24 27 25 28 26 29 29 30 27 31 28 32
REMARK H PARENT 1 25
REMARK Flexibility Score: inf
ROOT
ATOM      1  O   UNL     1       3.335   1.092  -1.794  1.00  0.00    -0.492 OA
ENDROOT
BRANCH   1   2
ATOM      2  C   UNL     1       1.942   1.058  -1.617  1.00  0.00     0.119 A 
ATOM      3  C   UNL     1      -0.865   1.100  -1.213  1.00  0.00    -0.040 A 
ATOM      4  C   UNL     1      -0.083   2.258  -1.028  1.00  0.00     0.008 A 
ATOM      5  C   UNL     1      -0.217  -0.066  -1.667  1.00  0.00     0.008 A 
ATOM      6  C   UNL     1       1.301   2.230  -1.209  1.00  0.00     0.047 A 
ATOM      7  C   UNL     1       1.168  -0.091  -1.856  1.00  0.00     0.047 A 
BRANCH   3   8
ATOM      8  C   UNL     1      -2.385   1.217  -1.049  1.00  0.00     0.057 C 
ATOM      9  C   UNL     1      -3.283   0.003  -1.466  1.00  0.00     0.031 C 
ATOM     10  C   UNL     1      -4.807   0.370  -1.424  1.00  0.00     0.014 C 
ATOM     11  C   UNL     1      -5.141   1.729  -0.764  1.00  0.00     0.036 C 
ATOM     12  C   UNL     1      -2.862   1.755   0.291  1.00  0.00    -0.036 A 
ATOM     13  C   UNL     1      -4.243   2.007   0.416  1.00  0.00    -0.040 A 
ATOM     14  C   UNL     1      -2.034   1.900   1.422  1.00  0.00     0.008 A 
ATOM     15  C   UNL     1      -4.765   2.483   1.628  1.00  0.00     0.050 A 
ATOM     16  C   UNL     1      -2.563   2.367   2.627  1.00  0.00     0.046 A 
ATOM     17  C   UNL     1      -3.924   2.666   2.733  1.00  0.00     0.115 A 
BRANCH   9  18
ATOM     18  C   UNL     1      -3.039  -1.291  -0.681  1.00  0.00    -0.044 A 
ATOM     19  C   UNL     1      -3.218  -1.367   0.717  1.00  0.00     0.004 A 
ATOM     20  C   UNL     1      -2.757  -2.483  -1.380  1.00  0.00     0.004 A 
ATOM     21  C   UNL     1      -3.037  -2.576   1.395  1.00  0.00     0.000 A 
ATOM     22  C   UNL     1      -2.569  -3.687  -0.696  1.00  0.00     0.000 A 
ATOM     23  C   UNL     1      -2.702  -3.732   0.691  1.00  0.00     0.000 A 
ENDBRANCH   9  18
BRANCH  17  24
ATOM     24  O   UNL     1      -4.432   3.128   3.944  1.00  0.00    -0.508 OA
ATOM     25  H   UNL     1      -5.416   3.343   4.061  1.00  0.00     0.293 HD
ENDBRANCH  17  24
ENDBRANCH   3   8
ENDBRANCH   1   2
BRANCH   1  26
ATOM     26  C   UNL     1       4.155  -0.018  -2.163  1.00  0.00     0.245 C 
BRANCH  26  27
ATOM     27  C   UNL     1       4.386  -0.954  -0.970  1.00  0.00     0.126 C 
BRANCH  27  28
ATOM     28  N   UNL     1       5.019  -0.224   0.154  1.00  0.00    -0.300 NA
ATOM     29  C   UNL     1       4.819  -0.927   1.429  1.00  0.00     0.084 C 
ATOM     30  C   UNL     1       6.482  -0.154  -0.004  1.00  0.00     0.084 C 
ATOM     31  C   UNL     1       5.983  -1.885   1.616  1.00  0.00     0.017 C 
ATOM     32  C   UNL     1       7.099  -1.324   0.756  1.00  0.00     0.017 C 
ENDBRANCH  27  28
ENDBRANCH  26  27
ENDBRANCH   1  26
TORSDOF 7
