REMARK SMILES CCCOc1ccc(S(=O)(=O)NCCC2CCCN2C)cc1-c1nc(=O)c2c([nH]1)c(CCC)nn2C
REMARK SMILES IDX 9 1 10 2 11 3 8 4 5 5 22 6 6 7 21 8 7 9 4 10 3 11 2 12 1 13
REMARK SMILES IDX 23 14 24 15 29 16 25 17 28 18 26 20 27 21 30 22 35 23 34 24
REMARK SMILES IDX 36 25 31 26 32 27 33 28 12 29 13 31 14 32 15 33 16 34 19 35
REMARK SMILES IDX 17 36 18 37 20 38
REMARK H PARENT 29 19 12 30
REMARK Flexibility Score: inf
ROOT
ATOM      1  S   UNL     1       2.227  -1.283   1.446  1.00  0.00     0.240 S 
ATOM      2  O   UNL     1       2.946  -1.061   2.747  1.00  0.00    -0.207 OA
ATOM      3  O   UNL     1       1.589  -2.644   1.488  1.00  0.00    -0.207 OA
ENDROOT
BRANCH   1   4
ATOM      4  C   UNL     1       0.975  -0.057   1.243  1.00  0.00     0.083 A 
ATOM      5  C   UNL     1      -1.006   1.915   0.897  1.00  0.00     0.130 A 
ATOM      6  C   UNL     1      -1.223   0.604   0.418  1.00  0.00     0.061 A 
ATOM      7  C   UNL     1       0.208   2.222   1.542  1.00  0.00     0.048 A 
ATOM      8  C   UNL     1      -0.223  -0.370   0.590  1.00  0.00     0.037 A 
ATOM      9  C   UNL     1       1.184   1.241   1.718  1.00  0.00     0.025 A 
BRANCH   5  10
ATOM     10  O   UNL     1      -2.016   2.877   0.735  1.00  0.00    -0.493 OA
BRANCH  10  11
ATOM     11  C   UNL     1      -1.903   4.250   1.098  1.00  0.00     0.229 C 
BRANCH  11  12
ATOM     12  C   UNL     1      -3.209   4.964   0.758  1.00  0.00     0.038 C 
ATOM     13  C   UNL     1      -3.117   6.460   1.045  1.00  0.00     0.007 C 
ENDBRANCH  11  12
ENDBRANCH  10  11
ENDBRANCH   5  10
BRANCH   6  14
ATOM     14  C   UNL     1      -2.485   0.250  -0.276  1.00  0.00     0.145 A 
ATOM     15  N   UNL     1      -3.072   1.161  -1.123  1.00  0.00    -0.189 NA
ATOM     16  N   UNL     1      -3.079  -0.972  -0.070  1.00  0.00    -0.336 N 
ATOM     17  C   UNL     1      -4.241   0.892  -1.774  1.00  0.00     0.299 A 
ATOM     18  C   UNL     1      -4.239  -1.236  -0.721  1.00  0.00     0.095 A 
ATOM     19  H   UNL     1      -2.673  -1.675   0.588  1.00  0.00     0.168 HD
ATOM     20  O   UNL     1      -4.758   1.749  -2.538  1.00  0.00    -0.265 OA
ATOM     21  C   UNL     1      -4.831  -0.348  -1.557  1.00  0.00     0.152 A 
ATOM     22  C   UNL     1      -5.062  -2.343  -0.698  1.00  0.00     0.087 A 
ATOM     23  N   UNL     1      -5.977  -0.881  -2.027  1.00  0.00    -0.261 N 
ATOM     24  N   UNL     1      -6.125  -2.098  -1.505  1.00  0.00    -0.175 NA
ATOM     25  C   UNL     1      -6.927  -0.271  -2.950  1.00  0.00     0.174 C 
BRANCH  22  26
ATOM     26  C   UNL     1      -4.893  -3.586   0.125  1.00  0.00     0.060 C 
BRANCH  26  27
ATOM     27  C   UNL     1      -5.312  -3.365   1.585  1.00  0.00     0.003 C 
ATOM     28  C   UNL     1      -6.811  -3.103   1.728  1.00  0.00     0.004 C 
ENDBRANCH  26  27
ENDBRANCH  22  26
ENDBRANCH   6  14
ENDBRANCH   1   4
BRANCH   1  29
ATOM     29  N   UNL     1       3.361  -1.231   0.131  1.00  0.00    -0.211 NA
ATOM     30  H   UNL     1       2.818  -1.388  -0.750  1.00  0.00     0.141 HD
BRANCH  29  31
ATOM     31  C   UNL     1       3.982   0.094   0.056  1.00  0.00     0.100 C 
BRANCH  31  32
ATOM     32  C   UNL     1       5.173   0.089  -0.911  1.00  0.00     0.035 C 
BRANCH  32  33
ATOM     33  C   UNL     1       6.343  -0.797  -0.421  1.00  0.00     0.057 C 
ATOM     34  C   UNL     1       6.108  -2.287  -0.713  1.00  0.00     0.020 C 
ATOM     35  N   UNL     1       7.588  -0.421  -1.112  1.00  0.00    -0.303 NA
ATOM     36  C   UNL     1       7.385  -2.788  -1.363  1.00  0.00     0.017 C 
ATOM     37  C   UNL     1       8.375  -1.652  -1.214  1.00  0.00     0.084 C 
ATOM     38  C   UNL     1       8.336   0.621  -0.387  1.00  0.00     0.105 C 
ENDBRANCH  32  33
ENDBRANCH  31  32
ENDBRANCH  29  31
ENDBRANCH   1  29
TORSDOF 11
