REMARK SMILES CCOC(=O)Nc1ccc(NCc2ccc(F)cc2)nc1N
REMARK SMILES IDX 7 1 21 2 20 3 10 4 9 5 8 6 6 7 4 8 5 9 3 11 2 12 1 13 22 14
REMARK SMILES IDX 11 17 12 19 13 20 14 21 19 22 15 23 18 24 16 25 17 26
REMARK H PARENT 6 10 22 15 22 16 11 18
REMARK Flexibility Score: inf
ROOT
ATOM      1  C   UNL     1       1.913  -0.435  -0.649  1.00  0.00     0.086 A 
ATOM      2  C   UNL     1       1.050   0.405  -1.384  1.00  0.00     0.149 A 
ATOM      3  N   UNL     1      -0.279   0.428  -1.089  1.00  0.00    -0.212 NA
ATOM      4  C   UNL     1      -0.823  -0.337  -0.104  1.00  0.00     0.128 A 
ATOM      5  C   UNL     1       0.000  -1.185   0.644  1.00  0.00     0.049 A 
ATOM      6  C   UNL     1       1.366  -1.235   0.366  1.00  0.00     0.034 A 
ENDROOT
BRANCH   1   7
ATOM      7  N   UNL     1       3.311  -0.528  -0.974  1.00  0.00    -0.288 N 
ATOM      8  C   UNL     1       4.349  -0.576   0.012  1.00  0.00     0.411 C 
ATOM      9  O   UNL     1       4.084  -0.381   1.231  1.00  0.00    -0.224 OA
ATOM     10  H   UNL     1       3.596  -0.541  -1.978  1.00  0.00     0.173 HD
BRANCH   8  11
ATOM     11  O   UNL     1       5.665  -0.819  -0.396  1.00  0.00    -0.450 OA
BRANCH  11  12
ATOM     12  C   UNL     1       6.777  -0.828   0.497  1.00  0.00     0.231 C 
ATOM     13  C   UNL     1       7.171   0.593   0.881  1.00  0.00     0.049 C 
ENDBRANCH  11  12
ENDBRANCH   8  11
ENDBRANCH   1   7
BRANCH   2  14
ATOM     14  N   UNL     1       1.542   1.266  -2.415  1.00  0.00    -0.382 N 
ATOM     15  H   UNL     1       2.561   1.380  -2.607  1.00  0.00     0.158 HD
ATOM     16  H   UNL     1       0.874   1.853  -2.964  1.00  0.00     0.158 HD
ENDBRANCH   2  14
BRANCH   4  17
ATOM     17  N   UNL     1      -2.231  -0.277   0.166  1.00  0.00    -0.366 N 
ATOM     18  H   UNL     1      -2.624  -0.876   0.929  1.00  0.00     0.162 HD
BRANCH  17  19
ATOM     19  C   UNL     1      -3.119   0.598  -0.597  1.00  0.00     0.150 C 
BRANCH  19  20
ATOM     20  C   UNL     1      -4.538   0.469  -0.112  1.00  0.00    -0.029 A 
ATOM     21  C   UNL     1      -5.387  -0.506  -0.660  1.00  0.00     0.008 A 
ATOM     22  C   UNL     1      -5.003   1.277   0.938  1.00  0.00     0.008 A 
ATOM     23  C   UNL     1      -6.694  -0.651  -0.182  1.00  0.00     0.039 A 
ATOM     24  C   UNL     1      -6.310   1.130   1.413  1.00  0.00     0.039 A 
ATOM     25  C   UNL     1      -7.156   0.168   0.852  1.00  0.00     0.123 A 
ATOM     26  F   UNL     1      -8.422   0.026   1.316  1.00  0.00    -0.207 F 
ENDBRANCH  19  20
ENDBRANCH  17  19
ENDBRANCH   4  17
TORSDOF 7
