REMARK SMILES CON(C)C(=O)N1N=C(c2cc(F)ccc2F)S[C@@]1(CCCN)c1ccccc1
REMARK SMILES IDX 7 1 8 2 9 3 18 4 19 5 5 6 6 7 3 8 4 9 2 10 1 11 20 12 21 13
REMARK SMILES IDX 22 14 23 15 24 18 25 19 29 20 26 21 28 22 27 23 10 24 11 25
REMARK SMILES IDX 16 26 12 27 15 28 17 29 13 30 14 31
REMARK H PARENT 23 16 23 17
REMARK Flexibility Score: inf
ROOT
ATOM      1  N   UNL     1       0.201   0.716  -0.544  1.00  0.00    -0.191 N 
ATOM      2  N   UNL     1       1.118   0.849   0.498  1.00  0.00    -0.159 NA
ATOM      3  C   UNL     1       1.386  -0.234   1.139  1.00  0.00     0.130 C 
ATOM      4  S   UNL     1       0.509  -1.678   0.549  1.00  0.00    -0.068 SA
ATOM      5  C   UNL     1      -0.390  -0.624  -0.677  1.00  0.00     0.144 C 
ENDROOT
BRANCH   1   6
ATOM      6  C   UNL     1      -0.150   1.846  -1.370  1.00  0.00     0.365 C 
ATOM      7  O   UNL     1      -1.249   1.852  -1.986  1.00  0.00    -0.244 OA
BRANCH   6   8
ATOM      8  N   UNL     1       0.727   2.981  -1.510  1.00  0.00    -0.205 N 
ATOM      9  C   UNL     1       2.175   2.859  -1.343  1.00  0.00     0.185 C 
BRANCH   8  10
ATOM     10  O   UNL     1       0.231   4.129  -2.050  1.00  0.00    -0.273 OA
ATOM     11  C   UNL     1      -0.142   4.954  -0.974  1.00  0.00     0.231 C 
ENDBRANCH   8  10
ENDBRANCH   6   8
ENDBRANCH   1   6
BRANCH   5  12
ATOM     12  C   UNL     1      -0.077  -1.171  -2.111  1.00  0.00     0.049 C 
BRANCH  12  13
ATOM     13  C   UNL     1      -0.166  -2.701  -2.330  1.00  0.00     0.019 C 
BRANCH  13  14
ATOM     14  C   UNL     1      -1.555  -3.302  -2.100  1.00  0.00     0.078 C 
BRANCH  14  15
ATOM     15  N   UNL     1      -1.535  -4.731  -2.401  1.00  0.00    -0.330 NA
ATOM     16  H   UNL     1      -0.974  -5.213  -1.661  1.00  0.00     0.118 HD
ATOM     17  H   UNL     1      -2.514  -5.088  -2.311  1.00  0.00     0.118 HD
ENDBRANCH  14  15
ENDBRANCH  13  14
ENDBRANCH  12  13
ENDBRANCH   5  12
BRANCH   5  18
ATOM     18  C   UNL     1      -1.881  -0.543  -0.293  1.00  0.00    -0.010 A 
ATOM     19  C   UNL     1      -2.239  -0.361   1.063  1.00  0.00     0.007 A 
ATOM     20  C   UNL     1      -2.920  -0.503  -1.253  1.00  0.00     0.007 A 
ATOM     21  C   UNL     1      -3.576  -0.233   1.447  1.00  0.00     0.000 A 
ATOM     22  C   UNL     1      -4.256  -0.377  -0.862  1.00  0.00     0.000 A 
ATOM     23  C   UNL     1      -4.585  -0.252   0.486  1.00  0.00     0.000 A 
ENDBRANCH   5  18
BRANCH   3  24
ATOM     24  C   UNL     1       2.313  -0.233   2.302  1.00  0.00     0.047 A 
ATOM     25  C   UNL     1       2.708   0.994   2.874  1.00  0.00     0.053 A 
ATOM     26  C   UNL     1       2.822  -1.430   2.855  1.00  0.00     0.133 A 
ATOM     27  C   UNL     1       3.574   1.025   3.971  1.00  0.00     0.124 A 
ATOM     28  C   UNL     1       3.689  -1.388   3.953  1.00  0.00     0.043 A 
ATOM     29  F   UNL     1       2.513  -2.643   2.332  1.00  0.00    -0.206 F 
ATOM     30  F   UNL     1       3.939   2.214   4.512  1.00  0.00    -0.207 F 
ATOM     31  C   UNL     1       4.063  -0.164   4.510  1.00  0.00     0.042 A 
ENDBRANCH   3  24
TORSDOF 9
