REMARK SMILES Cc1c(-c2ccc(O)cc2)n(Cc2ccc(OCCN3CCCCCC3)cc2)c2ccc(O)cc12
REMARK SMILES IDX 18 1 17 2 16 3 13 4 14 5 28 6 15 7 27 8 12 9 11 10 1 11 2 12
REMARK SMILES IDX 3 13 35 14 29 15 34 16 30 17 32 18 31 19 4 20 5 21 10 22
REMARK SMILES IDX 6 23 9 24 7 25 8 26 33 28 19 30 20 31 21 32 22 33 26 35
REMARK SMILES IDX 25 36 24 37 23 38
REMARK H PARENT 8 27 33 29
REMARK Flexibility Score: 80.00
ROOT
ATOM      1  C   UNL     1       3.622  -1.599   2.717  1.00  0.00     0.245 C 
ENDROOT
BRANCH   1   2
ATOM      2  O   UNL     1       2.625  -1.882   1.735  1.00  0.00    -0.492 OA
BRANCH   2   3
ATOM      3  C   UNL     1       1.412  -1.193   1.578  1.00  0.00     0.119 A 
ATOM      4  C   UNL     1      -1.052   0.121   1.176  1.00  0.00    -0.028 A 
ATOM      5  C   UNL     1      -0.597  -0.842   0.259  1.00  0.00     0.009 A 
ATOM      6  C   UNL     1      -0.250   0.438   2.284  1.00  0.00     0.009 A 
ATOM      7  C   UNL     1       0.619  -1.497   0.467  1.00  0.00     0.047 A 
ATOM      8  C   UNL     1       0.968  -0.217   2.490  1.00  0.00     0.047 A 
BRANCH   4   9
ATOM      9  C   UNL     1      -2.351   0.860   0.959  1.00  0.00     0.158 C 
BRANCH   9  10
ATOM     10  N   UNL     1      -3.380  -0.013   0.377  1.00  0.00    -0.336 N 
ATOM     11  C   UNL     1      -5.927  -1.050  -2.125  1.00  0.00     0.047 C 
ATOM     12  C   UNL     1      -4.979  -0.870  -0.978  1.00  0.00    -0.017 A 
ATOM     13  C   UNL     1      -4.015   0.129  -0.820  1.00  0.00     0.052 A 
ATOM     14  C   UNL     1      -4.934  -1.620   0.181  1.00  0.00     0.007 A 
ATOM     15  C   UNL     1      -3.958  -1.077   0.979  1.00  0.00     0.049 A 
ATOM     16  C   UNL     1      -5.691  -2.719   0.586  1.00  0.00     0.056 A 
ATOM     17  C   UNL     1      -3.681  -1.603   2.245  1.00  0.00     0.031 A 
ATOM     18  C   UNL     1      -5.427  -3.275   1.851  1.00  0.00     0.116 A 
ATOM     19  C   UNL     1      -4.423  -2.716   2.677  1.00  0.00     0.048 A 
BRANCH  13  20
ATOM     20  C   UNL     1      -3.759   1.217  -1.789  1.00  0.00    -0.001 A 
ATOM     21  C   UNL     1      -4.805   2.066  -2.185  1.00  0.00     0.014 A 
ATOM     22  C   UNL     1      -2.481   1.397  -2.341  1.00  0.00     0.014 A 
ATOM     23  C   UNL     1      -4.572   3.086  -3.112  1.00  0.00     0.047 A 
ATOM     24  C   UNL     1      -2.250   2.419  -3.267  1.00  0.00     0.047 A 
ATOM     25  C   UNL     1      -3.293   3.265  -3.655  1.00  0.00     0.115 A 
BRANCH  25  26
ATOM     26  O   UNL     1      -3.049   4.279  -4.579  1.00  0.00    -0.508 OA
ATOM     27  H   UNL     1      -3.784   4.908  -4.881  1.00  0.00     0.293 HD
ENDBRANCH  25  26
ENDBRANCH  13  20
BRANCH  18  28
ATOM     28  O   UNL     1      -6.162  -4.377   2.281  1.00  0.00    -0.508 OA
ATOM     29  H   UNL     1      -5.997  -4.802   3.186  1.00  0.00     0.293 HD
ENDBRANCH  18  28
ENDBRANCH   9  10
ENDBRANCH   4   9
ENDBRANCH   2   3
ENDBRANCH   1   2
BRANCH   1  30
ATOM     30  C   UNL     1       4.371  -0.292   2.405  1.00  0.00     0.126 C 
BRANCH  30  31
ATOM     31  N   UNL     1       5.408  -0.482   1.360  1.00  0.00    -0.300 NA
BRANCH  31  32
ATOM     32  C   UNL     1       6.418   0.606   1.401  1.00  0.00     0.084 C 
BRANCH  32  33
ATOM     33  C   UNL     1       6.008   1.877   0.630  1.00  0.00     0.016 CG0
ATOM     34  G   UNL     1       6.512   1.854  -0.819  1.00  0.00     0.000 G0
ENDBRANCH  32  33
ENDBRANCH  31  32
BRANCH  31  35
ATOM     35  C   UNL     1       4.800  -0.747   0.030  1.00  0.00     0.084 C 
BRANCH  35  36
ATOM     36  C   UNL     1       5.757  -0.574  -1.167  1.00  0.00     0.016 C 
BRANCH  36  37
ATOM     37  C   UNL     1       5.754   0.864  -1.708  1.00  0.00     0.001 C 
BRANCH  37  38
ATOM     38  C   UNL     1       6.512   1.854  -0.819  1.00  0.00     0.001 CG0
ATOM     39  G   UNL     1       6.008   1.877   0.630  1.00  0.00     0.000 G0
ENDBRANCH  37  38
ENDBRANCH  36  37
ENDBRANCH  35  36
ENDBRANCH  31  35
ENDBRANCH  30  31
ENDBRANCH   1  30
TORSDOF 9
