REMARK SMILES C[C@H](Cc1cc2c(c(C(N)=O)c1)N(CCCO)CC2)NCCOc1ccccc1OCC(F)(F)F
REMARK SMILES IDX 20 1 2 3 1 4 3 5 4 6 5 7 12 8 6 9 8 10 7 11 19 12 13 13
REMARK SMILES IDX 18 14 9 15 10 16 11 17 14 20 15 21 16 22 17 23 21 25 22 26
REMARK SMILES IDX 23 27 24 28 25 29 29 30 26 31 28 32 27 33 30 34 31 35 32 36
REMARK SMILES IDX 33 37 34 38 35 39
REMARK H PARENT 20 2 10 18 10 19 17 24
REMARK Flexibility Score: inf
ROOT
ATOM      1  N   UNL     1      -2.157  -1.236   0.194  1.00  0.00    -0.311 NA
ATOM      2  H   UNL     1      -2.446  -0.446  -0.431  1.00  0.00     0.123 HD
ENDROOT
BRANCH   1   3
ATOM      3  C   UNL     1      -0.680  -1.269   0.244  1.00  0.00     0.055 C 
ATOM      4  C   UNL     1      -0.181  -2.598   0.832  1.00  0.00     0.024 C 
BRANCH   3   5
ATOM      5  C   UNL     1      -0.078  -0.039   0.967  1.00  0.00     0.054 C 
BRANCH   5   6
ATOM      6  C   UNL     1       1.399   0.094   0.695  1.00  0.00    -0.045 A 
ATOM      7  C   UNL     1       1.842   0.679  -0.503  1.00  0.00     0.009 A 
ATOM      8  C   UNL     1       2.342  -0.445   1.597  1.00  0.00     0.019 A 
ATOM      9  C   UNL     1       3.211   0.742  -0.755  1.00  0.00    -0.022 A 
ATOM     10  C   UNL     1       3.722  -0.396   1.315  1.00  0.00     0.063 A 
ATOM     11  C   UNL     1       4.135   0.259   0.134  1.00  0.00     0.053 A 
ATOM     12  C   UNL     1       3.876   1.323  -1.944  1.00  0.00     0.059 C 
ATOM     13  N   UNL     1       5.468   0.509  -0.317  1.00  0.00    -0.370 N 
ATOM     14  C   UNL     1       5.363   1.006  -1.696  1.00  0.00     0.121 C 
BRANCH  10  15
ATOM     15  C   UNL     1       4.657  -1.122   2.195  1.00  0.00     0.250 C 
ATOM     16  N   UNL     1       5.660  -1.976   1.646  1.00  0.00    -0.366 N 
ATOM     17  O   UNL     1       4.539  -1.028   3.446  1.00  0.00    -0.269 OA
ATOM     18  H   UNL     1       5.693  -2.167   0.620  1.00  0.00     0.159 HD
ATOM     19  H   UNL     1       6.334  -2.468   2.274  1.00  0.00     0.159 HD
ENDBRANCH  10  15
BRANCH  13  20
ATOM     20  C   UNL     1       6.533   0.995   0.575  1.00  0.00     0.119 C 
BRANCH  20  21
ATOM     21  C   UNL     1       7.862   0.259   0.331  1.00  0.00     0.049 C 
BRANCH  21  22
ATOM     22  C   UNL     1       8.645   0.769  -0.884  1.00  0.00     0.158 C 
BRANCH  22  23
ATOM     23  O   UNL     1       9.026   2.107  -0.707  1.00  0.00    -0.396 OA
ATOM     24  H   UNL     1       8.343   2.665  -1.160  1.00  0.00     0.210 HD
ENDBRANCH  22  23
ENDBRANCH  21  22
ENDBRANCH  20  21
ENDBRANCH  13  20
ENDBRANCH   5   6
ENDBRANCH   3   5
ENDBRANCH   1   3
BRANCH   1  25
ATOM     25  C   UNL     1      -2.809  -1.053   1.500  1.00  0.00     0.122 C 
BRANCH  25  26
ATOM     26  C   UNL     1      -4.274  -1.466   1.408  1.00  0.00     0.245 C 
BRANCH  26  27
ATOM     27  O   UNL     1      -4.965  -0.600   0.510  1.00  0.00    -0.488 OA
BRANCH  27  28
ATOM     28  C   UNL     1      -6.319  -0.726   0.164  1.00  0.00     0.161 A 
ATOM     29  C   UNL     1      -7.131  -1.754   0.684  1.00  0.00     0.050 A 
ATOM     30  C   UNL     1      -6.868   0.210  -0.728  1.00  0.00     0.161 A 
ATOM     31  C   UNL     1      -8.472  -1.850   0.307  1.00  0.00     0.004 A 
ATOM     32  C   UNL     1      -8.222   0.098  -1.103  1.00  0.00     0.050 A 
ATOM     33  C   UNL     1      -9.015  -0.928  -0.585  1.00  0.00     0.004 A 
BRANCH  30  34
ATOM     34  O   UNL     1      -6.026   1.223  -1.223  1.00  0.00    -0.480 OA
BRANCH  34  35
ATOM     35  C   UNL     1      -6.438   2.368  -1.971  1.00  0.00     0.345 C 
BRANCH  35  36
ATOM     36  C   UNL     1      -7.014   3.446  -1.052  1.00  0.00     0.422 C 
ATOM     37  F   UNL     1      -7.317   4.572  -1.796  1.00  0.00    -0.167 F 
ATOM     38  F   UNL     1      -6.084   3.782  -0.085  1.00  0.00    -0.167 F 
ATOM     39  F   UNL     1      -8.166   2.996  -0.434  1.00  0.00    -0.167 F 
ENDBRANCH  35  36
ENDBRANCH  34  35
ENDBRANCH  30  34
ENDBRANCH  27  28
ENDBRANCH  26  27
ENDBRANCH  25  26
ENDBRANCH   1  25
TORSDOF 15
