REMARK SMILES O=C(O)CCCc1ccccc1
REMARK SMILES IDX 4 1 2 2 1 3 3 4 5 6 6 7 7 8 8 9 12 10 9 11 11 12 10 13
REMARK H PARENT 3 5
REMARK Flexibility Score: inf
ROOT
ATOM      1  C   UNL     1       2.642  -0.325   0.693  1.00  0.00     0.123 C 
ENDROOT
BRANCH   1   2
ATOM      2  C   UNL     1       3.687  -0.269  -0.376  1.00  0.00     0.303 C 
ATOM      3  O   UNL     1       4.052  -1.325  -0.959  1.00  0.00    -0.252 OA
BRANCH   2   4
ATOM      4  O   UNL     1       4.224   0.957  -0.755  1.00  0.00    -0.481 OA
ATOM      5  H   UNL     1       4.921   1.014  -1.489  1.00  0.00     0.296 HD
ENDBRANCH   2   4
ENDBRANCH   1   2
BRANCH   1   6
ATOM      6  C   UNL     1       1.247  -0.150   0.087  1.00  0.00     0.016 C 
BRANCH   6   7
ATOM      7  C   UNL     1       0.165  -0.201   1.171  1.00  0.00     0.036 C 
BRANCH   7   8
ATOM      8  C   UNL     1      -1.201  -0.027   0.564  1.00  0.00    -0.048 A 
ATOM      9  C   UNL     1      -1.922  -1.144   0.108  1.00  0.00     0.004 A 
ATOM     10  C   UNL     1      -1.744   1.258   0.397  1.00  0.00     0.004 A 
ATOM     11  C   UNL     1      -3.177  -0.978  -0.485  1.00  0.00     0.000 A 
ATOM     12  C   UNL     1      -3.000   1.420  -0.197  1.00  0.00     0.000 A 
ATOM     13  C   UNL     1      -3.717   0.303  -0.636  1.00  0.00     0.000 A 
ENDBRANCH   7   8
ENDBRANCH   6   7
ENDBRANCH   1   6
TORSDOF 5
