REMARK SMILES CN1C(C(=O)Nc2ccccn2)=C(O)c2sc(Cl)cc2S1(=O)=O
REMARK SMILES IDX 1 1 2 2 3 3 13 4 15 5 20 6 19 7 17 8 18 9 16 10 21 11 22 12
REMARK SMILES IDX 23 13 4 14 5 15 6 16 7 18 8 19 12 20 9 21 11 22 10 23 14 24
REMARK H PARENT 6 17 14 25
REMARK Flexibility Score: inf
ROOT
ATOM      1  C   UNL     1      -0.361   0.676  -2.851  1.00  0.00     0.164 C 
ATOM      2  N   UNL     1      -1.214   0.106  -1.805  1.00  0.00    -0.260 N 
ATOM      3  C   UNL     1      -0.794   0.111  -0.411  1.00  0.00     0.160 C 
ATOM      4  C   UNL     1      -1.483  -0.532   0.570  1.00  0.00     0.164 C 
ATOM      5  C   UNL     1      -2.721  -1.303   0.310  1.00  0.00     0.093 A 
ATOM      6  C   UNL     1      -3.355  -1.415  -0.910  1.00  0.00     0.111 A 
ATOM      7  C   UNL     1      -4.519  -2.191  -0.897  1.00  0.00     0.055 A 
ATOM      8  C   UNL     1      -4.801  -2.696   0.363  1.00  0.00     0.095 A 
ATOM      9  Cl  UNL     1      -6.169  -3.707   0.777  1.00  0.00    -0.072 Cl
ATOM     10  S   UNL     1      -3.616  -2.179   1.440  1.00  0.00    -0.118 S 
ATOM     11  S   UNL     1      -2.703  -0.632  -2.306  1.00  0.00     0.265 S 
ATOM     12  O   UNL     1      -2.438  -1.652  -3.378  1.00  0.00    -0.201 OA
ATOM     13  O   UNL     1      -3.656   0.419  -2.801  1.00  0.00    -0.201 OA
ENDROOT
BRANCH   3  14
ATOM     14  C   UNL     1       0.438   0.846  -0.034  1.00  0.00     0.278 C 
ATOM     15  O   UNL     1       0.538   2.068  -0.325  1.00  0.00    -0.267 OA
ATOM     16  N   UNL     1       1.508   0.163   0.642  1.00  0.00    -0.305 N 
ATOM     17  H   UNL     1       1.427  -0.874   0.752  1.00  0.00     0.171 HD
BRANCH  16  18
ATOM     18  C   UNL     1       2.683   0.809   1.161  1.00  0.00     0.132 A 
ATOM     19  C   UNL     1       3.701   0.041   1.746  1.00  0.00     0.047 A 
ATOM     20  N   UNL     1       2.820   2.164   1.103  1.00  0.00    -0.239 NA
ATOM     21  C   UNL     1       4.837   0.675   2.253  1.00  0.00     0.005 A 
ATOM     22  C   UNL     1       3.918   2.800   1.592  1.00  0.00     0.113 A 
ATOM     23  C   UNL     1       4.950   2.064   2.177  1.00  0.00     0.020 A 
ENDBRANCH  16  18
ENDBRANCH   3  14
BRANCH   4  24
ATOM     24  O   UNL     1      -1.015  -0.451   1.886  1.00  0.00    -0.504 OA
ATOM     25  H   UNL     1      -1.487  -0.900   2.661  1.00  0.00     0.293 HD
ENDBRANCH   4  24
TORSDOF 3
