REMARK SMILES COC(c1ccccc1)(c1ccccc1)[C@H](Oc1nc(C)cc(C)n1)C(=O)O
REMARK SMILES IDX 16 1 3 2 2 3 1 4 4 5 5 6 9 7 6 8 8 9 7 10 10 11 11 12 15 13
REMARK SMILES IDX 12 14 14 15 13 16 17 17 18 18 19 19 25 20 20 21 23 22 21 23
REMARK SMILES IDX 22 24 24 25 26 26 27 27 28 28
REMARK H PARENT 28 29
REMARK Flexibility Score: inf
ROOT
ATOM      1  C   UNL     1      -0.152  -1.231   1.387  1.00  0.00     0.326 C 
ENDROOT
BRANCH   1   2
ATOM      2  C   UNL     1      -1.479  -0.582   0.824  1.00  0.00     0.165 C 
BRANCH   2   3
ATOM      3  O   UNL     1      -2.484  -0.760   1.829  1.00  0.00    -0.364 OA
ATOM      4  C   UNL     1      -3.772  -0.305   1.456  1.00  0.00     0.197 C 
ENDBRANCH   2   3
BRANCH   2   5
ATOM      5  C   UNL     1      -1.941  -1.231  -0.519  1.00  0.00    -0.007 A 
ATOM      6  C   UNL     1      -1.766  -2.609  -0.782  1.00  0.00     0.007 A 
ATOM      7  C   UNL     1      -2.688  -0.482  -1.463  1.00  0.00     0.007 A 
ATOM      8  C   UNL     1      -2.235  -3.184  -1.967  1.00  0.00     0.000 A 
ATOM      9  C   UNL     1      -3.154  -1.063  -2.645  1.00  0.00     0.000 A 
ATOM     10  C   UNL     1      -2.919  -2.411  -2.901  1.00  0.00     0.000 A 
ENDBRANCH   2   5
BRANCH   2  11
ATOM     11  C   UNL     1      -1.143   0.921   0.665  1.00  0.00    -0.007 A 
ATOM     12  C   UNL     1      -1.317   1.807   1.752  1.00  0.00     0.007 A 
ATOM     13  C   UNL     1      -0.494   1.413  -0.491  1.00  0.00     0.007 A 
ATOM     14  C   UNL     1      -0.922   3.144   1.658  1.00  0.00     0.000 A 
ATOM     15  C   UNL     1      -0.101   2.751  -0.579  1.00  0.00     0.000 A 
ATOM     16  C   UNL     1      -0.320   3.617   0.492  1.00  0.00     0.000 A 
ENDBRANCH   2  11
ENDBRANCH   1   2
BRANCH   1  17
ATOM     17  O   UNL     1       0.802  -1.447   0.339  1.00  0.00    -0.444 OA
BRANCH  17  18
ATOM     18  C   UNL     1       1.886  -0.604   0.068  1.00  0.00     0.317 A 
ATOM     19  N   UNL     1       2.683  -0.870  -0.999  1.00  0.00    -0.201 NA
ATOM     20  N   UNL     1       2.139   0.487   0.843  1.00  0.00    -0.201 NA
ATOM     21  C   UNL     1       3.732  -0.063  -1.314  1.00  0.00     0.045 A 
ATOM     22  C   UNL     1       3.170   1.327   0.565  1.00  0.00     0.045 A 
ATOM     23  C   UNL     1       4.572  -0.367  -2.513  1.00  0.00     0.067 C 
ATOM     24  C   UNL     1       3.989   1.072  -0.538  1.00  0.00     0.047 A 
ATOM     25  C   UNL     1       3.380   2.546   1.404  1.00  0.00     0.067 C 
ENDBRANCH  17  18
ENDBRANCH   1  17
BRANCH   1  26
ATOM     26  C   UNL     1      -0.345  -2.520   2.153  1.00  0.00     0.348 C 
ATOM     27  O   UNL     1      -1.072  -2.547   3.182  1.00  0.00    -0.248 OA
BRANCH  26  28
ATOM     28  O   UNL     1       0.349  -3.667   1.778  1.00  0.00    -0.478 OA
ATOM     29  H   UNL     1       0.249  -4.530   2.299  1.00  0.00     0.296 HD
ENDBRANCH  26  28
ENDBRANCH   1  26
TORSDOF 8
