REMARK SMILES Cc1ncsc1CCCl
REMARK SMILES IDX 7 1 6 2 1 3 2 4 3 5 5 6 4 7 8 8 9 9
REMARK H PARENT
REMARK Flexibility Score: inf
ROOT
ATOM      1  C   UNL     1       1.191   0.269  -0.822  1.00  0.00     0.065 C 
ENDROOT
BRANCH   1   2
ATOM      2  C   UNL     1      -0.167  -0.313  -0.542  1.00  0.00     0.028 A 
ATOM      3  C   UNL     1      -1.074   1.547   0.960  1.00  0.00     0.068 C 
ATOM      4  C   UNL     1      -1.176   0.229   0.259  1.00  0.00     0.051 A 
ATOM      5  N   UNL     1      -2.303  -0.530   0.343  1.00  0.00    -0.250 NA
ATOM      6  S   UNL     1      -0.719  -1.785  -1.140  1.00  0.00    -0.127 S 
ATOM      7  C   UNL     1      -2.209  -1.674  -0.371  1.00  0.00     0.176 A 
ENDBRANCH   1   2
BRANCH   1   8
ATOM      8  C   UNL     1       2.296  -0.507  -0.104  1.00  0.00     0.115 C 
ATOM      9  Cl  UNL     1       2.166  -0.336   1.668  1.00  0.00    -0.126 Cl
ENDBRANCH   1   8
TORSDOF 2
