REMARK SMILES C[C@]12CCC(=O)C[C@H]1CC[C@@H]1[C@@H]2CC[C@]2(C)[C@@H](O)CC[C@@H]12
REMARK SMILES IDX 17 1 19 2 20 3 21 4 11 5 10 6 9 7 8 8 7 9 5 10 6 11 4 12
REMARK SMILES IDX 3 13 2 14 1 15 12 16 13 17 14 18 15 19 16 20 18 21
REMARK H PARENT 18 22
REMARK Flexibility Score: inf
ROOT
ATOM      1  C   UNL     1       4.007  -0.427   0.272  1.00  0.00     0.120 C 
ATOM      2  C   UNL     1       4.246   1.097   0.174  1.00  0.00     0.032 C 
ATOM      3  C   UNL     1       2.860   1.753   0.041  1.00  0.00     0.007 C 
ATOM      4  C   UNL     1       1.886   0.611   0.301  1.00  0.00     0.001 C 
ATOM      5  C   UNL     1       0.420   0.765  -0.161  1.00  0.00    -0.004 C 
ATOM      6  C   UNL     1      -0.213   2.026   0.491  1.00  0.00     0.004 C 
ATOM      7  C   UNL     1      -1.742   1.944   0.649  1.00  0.00     0.005 C 
ATOM      8  C   UNL     1      -2.364   1.042  -0.430  1.00  0.00     0.002 C 
ATOM      9  C   UNL     1      -3.900   1.232  -0.513  1.00  0.00     0.079 C 
ATOM     10  C   UNL     1      -4.616   0.401   0.502  1.00  0.00     0.133 C 
ATOM     11  O   UNL     1      -5.493   0.887   1.199  1.00  0.00    -0.300 OA
ATOM     12  C   UNL     1      -4.278  -1.050   0.604  1.00  0.00     0.076 C 
ATOM     13  C   UNL     1      -2.770  -1.201   0.810  1.00  0.00     0.015 C 
ATOM     14  C   UNL     1      -1.897  -0.460  -0.259  1.00  0.00    -0.026 C 
ATOM     15  C   UNL     1      -2.070  -1.162  -1.634  1.00  0.00     0.012 C 
ATOM     16  C   UNL     1      -0.382  -0.518   0.236  1.00  0.00    -0.001 C 
ATOM     17  C   UNL     1       0.358  -1.854  -0.118  1.00  0.00     0.005 C 
ATOM     18  C   UNL     1       1.849  -1.868   0.287  1.00  0.00     0.010 C 
ATOM     19  C   UNL     1       2.578  -0.628  -0.271  1.00  0.00    -0.003 C 
ATOM     20  C   UNL     1       2.611  -0.666  -1.834  1.00  0.00     0.014 C 
ENDROOT
BRANCH   1  21
ATOM     21  O   UNL     1       4.962  -1.150  -0.461  1.00  0.00    -0.393 OA
ATOM     22  H   UNL     1       5.818  -1.068   0.035  1.00  0.00     0.210 HD
ENDBRANCH   1  21
TORSDOF 1
