REMARK SMILES N[C@@H](Cc1cc(Br)c(O)c(Br)c1)C(=O)O
REMARK SMILES IDX 3 1 2 2 1 3 13 6 14 7 15 8 4 10 5 11 12 12 6 13 10 14 7 15
REMARK SMILES IDX 8 16 11 17 9 18
REMARK H PARENT 1 4 1 5 15 9 9 19
REMARK Flexibility Score: inf
ROOT
ATOM      1  C   UNL     1      -1.025  -0.280  -0.817  1.00  0.00     0.066 C 
ENDROOT
BRANCH   1   2
ATOM      2  C   UNL     1      -1.905  -0.109   0.436  1.00  0.00     0.166 C 
BRANCH   2   3
ATOM      3  N   UNL     1      -1.669  -1.198   1.388  1.00  0.00    -0.318 NA
ATOM      4  H   UNL     1      -2.309  -1.066   2.205  1.00  0.00     0.119 HD
ATOM      5  H   UNL     1      -0.702  -1.098   1.774  1.00  0.00     0.119 HD
ENDBRANCH   2   3
BRANCH   2   6
ATOM      6  C   UNL     1      -3.353  -0.090   0.034  1.00  0.00     0.320 C 
ATOM      7  O   UNL     1      -3.922  -1.149  -0.346  1.00  0.00    -0.251 OA
BRANCH   6   8
ATOM      8  O   UNL     1      -4.060   1.109   0.051  1.00  0.00    -0.480 OA
ATOM      9  H   UNL     1      -5.033   1.142  -0.227  1.00  0.00     0.296 HD
ENDBRANCH   6   8
ENDBRANCH   2   6
ENDBRANCH   1   2
BRANCH   1  10
ATOM     10  C   UNL     1       0.438  -0.093  -0.507  1.00  0.00    -0.043 A 
ATOM     11  C   UNL     1       0.968   1.198  -0.361  1.00  0.00     0.023 A 
ATOM     12  C   UNL     1       1.275  -1.204  -0.325  1.00  0.00     0.023 A 
ATOM     13  C   UNL     1       2.320   1.381  -0.049  1.00  0.00     0.061 A 
ATOM     14  C   UNL     1       2.626  -1.029  -0.013  1.00  0.00     0.061 A 
ATOM     15  Br  UNL     1       2.971   3.175   0.131  1.00  0.00    -0.047 Br
ATOM     16  C   UNL     1       3.159   0.262   0.126  1.00  0.00     0.143 A 
ATOM     17  Br  UNL     1       3.734  -2.571   0.225  1.00  0.00    -0.047 Br
BRANCH  16  18
ATOM     18  O   UNL     1       4.512   0.406   0.437  1.00  0.00    -0.506 OA
ATOM     19  H   UNL     1       4.958   1.307   0.551  1.00  0.00     0.293 HD
ENDBRANCH  16  18
ENDBRANCH   1  10
TORSDOF 6
