REMARK SMILES Clc1ccc([C@H]2C[C@@H]3CC[C@H]2N3)cn1
REMARK SMILES IDX 8 1 9 2 10 3 11 4 12 5 6 6 7 7 5 9 4 10 13 11 3 12 14 13
REMARK SMILES IDX 2 14 1 15
REMARK H PARENT 12 8
REMARK Flexibility Score: inf
ROOT
ATOM      1  C   UNL     1      -1.889   1.410   0.098  1.00  0.00     0.054 C 
ATOM      2  C   UNL     1      -3.042   0.448   0.429  1.00  0.00     0.020 C 
ATOM      3  C   UNL     1      -2.482  -0.885  -0.090  1.00  0.00     0.021 C 
ATOM      4  C   UNL     1      -1.095  -0.453  -0.591  1.00  0.00     0.061 C 
ATOM      5  N   UNL     1      -1.383   0.858  -1.145  1.00  0.00    -0.311 NA
ATOM      6  C   UNL     1      -0.197  -0.175   0.642  1.00  0.00     0.039 C 
ATOM      7  C   UNL     1      -0.747   1.187   1.109  1.00  0.00     0.029 C 
ATOM      8  H   UNL     1      -0.512   1.348  -1.453  1.00  0.00     0.123 HD
ENDROOT
BRANCH   6   9
ATOM      9  C   UNL     1       1.289  -0.225   0.308  1.00  0.00    -0.025 A 
ATOM     10  C   UNL     1       1.999  -1.410   0.568  1.00  0.00     0.009 A 
ATOM     11  C   UNL     1       1.982   0.832  -0.319  1.00  0.00     0.116 A 
ATOM     12  C   UNL     1       3.351  -1.514   0.242  1.00  0.00     0.041 A 
ATOM     13  N   UNL     1       3.300   0.704  -0.627  1.00  0.00    -0.244 NA
ATOM     14  C   UNL     1       3.993  -0.433  -0.360  1.00  0.00     0.129 A 
ATOM     15  Cl  UNL     1       5.691  -0.535  -0.782  1.00  0.00    -0.062 Cl
ENDBRANCH   6   9
TORSDOF 1
