REMARK SMILES COc1ccc(C[C@H]2NC[C@H](O)[C@H]2OC(C)=O)cc1
REMARK SMILES IDX 11 1 10 2 9 3 8 4 13 5 12 7 14 9 15 10 16 11 17 12 7 13 6 14
REMARK SMILES IDX 5 15 18 16 4 17 19 18 3 19 2 20 1 21
REMARK H PARENT 9 6 12 8
REMARK Flexibility Score: inf
ROOT
ATOM      1  C   UNL     1      -2.821   1.681  -1.125  1.00  0.00     0.170 C 
ATOM      2  C   UNL     1      -1.561   2.545  -1.241  1.00  0.00     0.117 C 
ATOM      3  N   UNL     1      -0.618   2.113  -0.205  1.00  0.00    -0.307 NA
ATOM      4  C   UNL     1      -1.111   0.834   0.324  1.00  0.00     0.102 C 
ATOM      5  C   UNL     1      -2.634   0.893   0.162  1.00  0.00     0.223 C 
ATOM      6  H   UNL     1       0.342   2.033  -0.610  1.00  0.00     0.123 HD
ENDROOT
BRANCH   1   7
ATOM      7  O   UNL     1      -4.002   2.447  -1.114  1.00  0.00    -0.388 OA
ATOM      8  H   UNL     1      -3.945   3.090  -0.359  1.00  0.00     0.211 HD
ENDBRANCH   1   7
BRANCH   5   9
ATOM      9  O   UNL     1      -3.254  -0.391   0.072  1.00  0.00    -0.458 OA
BRANCH   9  10
ATOM     10  C   UNL     1      -3.434  -1.231   1.176  1.00  0.00     0.303 C 
ATOM     11  C   UNL     1      -4.046  -2.576   0.982  1.00  0.00     0.139 C 
ATOM     12  O   UNL     1      -3.040  -0.884   2.323  1.00  0.00    -0.253 OA
ENDBRANCH   9  10
ENDBRANCH   5   9
BRANCH   4  13
ATOM     13  C   UNL     1      -0.469  -0.377  -0.410  1.00  0.00     0.058 C 
BRANCH  13  14
ATOM     14  C   UNL     1       1.003  -0.506  -0.107  1.00  0.00    -0.046 A 
ATOM     15  C   UNL     1       1.427  -0.962   1.150  1.00  0.00     0.007 A 
ATOM     16  C   UNL     1       1.964  -0.167  -1.073  1.00  0.00     0.007 A 
ATOM     17  C   UNL     1       2.790  -1.075   1.438  1.00  0.00     0.046 A 
ATOM     18  C   UNL     1       3.327  -0.281  -0.785  1.00  0.00     0.046 A 
ATOM     19  C   UNL     1       3.750  -0.737   0.478  1.00  0.00     0.118 A 
BRANCH  19  20
ATOM     20  O   UNL     1       5.105  -0.867   0.816  1.00  0.00    -0.497 OA
ATOM     21  C   UNL     1       6.185  -0.559  -0.060  1.00  0.00     0.278 C 
ENDBRANCH  19  20
ENDBRANCH  13  14
ENDBRANCH   4  13
TORSDOF 6
