REMARK SMILES C[C@H]1CCC/C=C/[C@@H]2C[C@H](O)C[C@H]2[C@H](O)/C=C/C(=O)O1
REMARK SMILES IDX 18 1 19 2 17 3 16 4 14 5 13 6 10 7 9 8 12 9 8 10 11 11 7 13
REMARK SMILES IDX 6 14 15 16 20 18 2 19 1 20 3 21 4 22 5 23
REMARK H PARENT 11 12 15 17
REMARK Flexibility Score: 60.00
ROOT
ATOM      1  C   UNL     1       2.174   1.940   0.338  1.00  0.00     0.330 C 
ATOM      2  O   UNL     1       2.999   2.038   1.285  1.00  0.00    -0.247 OA
ENDROOT
BRANCH   1   3
ATOM      3  C   UNL     1       0.737   2.078   0.616  1.00  0.00     0.092 C 
ATOM      4  C   UNL     1      -0.182   1.880  -0.335  1.00  0.00     0.012 C 
BRANCH   4   5
ATOM      5  C   UNL     1      -1.661   1.950  -0.048  1.00  0.00     0.141 C 
BRANCH   5   6
ATOM      6  C   UNL     1      -2.361   0.610  -0.401  1.00  0.00     0.031 C 
ATOM      7  C   UNL     1      -4.349  -0.737   0.029  1.00  0.00     0.115 C 
ATOM      8  C   UNL     1      -3.125  -1.532   0.504  1.00  0.00     0.040 C 
ATOM      9  C   UNL     1      -3.875   0.696  -0.219  1.00  0.00     0.039 C 
ATOM     10  C   UNL     1      -1.939  -0.562   0.502  1.00  0.00     0.020 C 
BRANCH   7  11
ATOM     11  O   UNL     1      -4.904  -1.300  -1.135  1.00  0.00    -0.393 OA
ATOM     12  H   UNL     1      -4.214  -1.262  -1.849  1.00  0.00     0.210 HD
ENDBRANCH   7  11
BRANCH  10  13
ATOM     13  C   UNL     1      -0.679  -1.243   0.015  1.00  0.00    -0.027 C 
ATOM     14  C   UNL     1       0.276  -1.637   0.871  1.00  0.00    -0.031 CG0
ATOM     15  G   UNL     1       1.524  -2.345   0.411  1.00  0.00     0.000 G0
ENDBRANCH  10  13
ENDBRANCH   5   6
BRANCH   5  16
ATOM     16  O   UNL     1      -2.226   3.014  -0.773  1.00  0.00    -0.389 OA
ATOM     17  H   UNL     1      -2.124   2.809  -1.740  1.00  0.00     0.211 HD
ENDBRANCH   5  16
ENDBRANCH   4   5
ENDBRANCH   1   3
BRANCH   1  18
ATOM     18  O   UNL     1       2.619   1.706  -0.967  1.00  0.00    -0.460 OA
BRANCH  18  19
ATOM     19  C   UNL     1       3.427   0.594  -1.369  1.00  0.00     0.173 C 
ATOM     20  C   UNL     1       4.813   0.601  -0.708  1.00  0.00     0.053 C 
BRANCH  19  21
ATOM     21  C   UNL     1       2.655  -0.738  -1.223  1.00  0.00     0.045 C 
BRANCH  21  22
ATOM     22  C   UNL     1       2.678  -1.355   0.191  1.00  0.00     0.008 C 
BRANCH  22  23
ATOM     23  C   UNL     1       1.524  -2.345   0.411  1.00  0.00     0.027 CG0
ATOM     24  G   UNL     1       0.276  -1.637   0.871  1.00  0.00     0.000 G0
ENDBRANCH  22  23
ENDBRANCH  21  22
ENDBRANCH  19  21
ENDBRANCH  18  19
ENDBRANCH   1  18
TORSDOF 2
