REMARK SMILES Cc1cc(O)c2c(c1)C(=O)c1cc(O)cc(O)c1C2=O
REMARK SMILES IDX 1 1 2 2 3 3 4 4 6 5 19 6 20 7 18 8 11 9 12 10 13 11 15 12
REMARK SMILES IDX 16 13 9 14 10 15 7 16 8 17 5 18 17 20 14 22
REMARK H PARENT 5 19 17 21 14 23
REMARK Flexibility Score: inf
ROOT
ATOM      1  C   UNL     1       4.616  -1.357   0.662  1.00  0.00     0.044 C 
ATOM      2  C   UNL     1       3.298  -0.644   0.587  1.00  0.00    -0.047 A 
ATOM      3  C   UNL     1       3.168   0.651   1.097  1.00  0.00     0.050 A 
ATOM      4  C   UNL     1       1.952   1.337   1.013  1.00  0.00     0.127 A 
ATOM      5  C   UNL     1       0.852   0.743   0.343  1.00  0.00     0.076 A 
ATOM      6  C   UNL     1      -0.411   1.477   0.072  1.00  0.00     0.201 C 
ATOM      7  O   UNL     1      -0.394   2.731  -0.049  1.00  0.00    -0.288 OA
ATOM      8  C   UNL     1      -1.651   0.721  -0.243  1.00  0.00     0.076 A 
ATOM      9  C   UNL     1      -1.522  -0.597  -0.735  1.00  0.00     0.041 A 
ATOM     10  C   UNL     1      -2.661  -1.294  -1.174  1.00  0.00     0.059 A 
ATOM     11  C   UNL     1      -3.924  -0.699  -1.112  1.00  0.00     0.120 A 
ATOM     12  C   UNL     1      -4.060   0.586  -0.589  1.00  0.00     0.093 A 
ATOM     13  C   UNL     1      -2.945   1.293  -0.127  1.00  0.00     0.131 A 
ATOM     14  C   UNL     1      -0.188  -1.240  -0.783  1.00  0.00     0.194 C 
ATOM     15  O   UNL     1      -0.048  -2.365  -1.339  1.00  0.00    -0.289 OA
ATOM     16  C   UNL     1       0.976  -0.576  -0.150  1.00  0.00     0.038 A 
ATOM     17  C   UNL     1       2.202  -1.253  -0.036  1.00  0.00     0.016 A 
ENDROOT
BRANCH   4  18
ATOM     18  O   UNL     1       1.872   2.585   1.635  1.00  0.00    -0.507 OA
ATOM     19  H   UNL     1       1.001   3.062   1.822  1.00  0.00     0.293 HD
ENDBRANCH   4  18
BRANCH  13  20
ATOM     20  O   UNL     1      -3.171   2.537   0.466  1.00  0.00    -0.507 OA
ATOM     21  H   UNL     1      -2.479   3.028   1.015  1.00  0.00     0.293 HD
ENDBRANCH  13  20
BRANCH  11  22
ATOM     22  O   UNL     1      -5.054  -1.383  -1.557  1.00  0.00    -0.508 OA
ATOM     23  H   UNL     1      -4.991  -2.319  -1.939  1.00  0.00     0.293 HD
ENDBRANCH  11  22
TORSDOF 3
