REMARK SMILES CC(C)Cn1c(=O)n(C)c(=O)c2nc[nH]c21
REMARK SMILES IDX 4 1 2 2 1 3 3 4 5 5 16 6 6 7 12 8 15 9 8 10 7 11 13 12 10 13
REMARK SMILES IDX 14 14 9 16 11 17
REMARK H PARENT 15 15
REMARK Flexibility Score: inf
ROOT
ATOM      1  C   UNL     1       1.034  -0.588  -0.907  1.00  0.00     0.132 C 
ENDROOT
BRANCH   1   2
ATOM      2  C   UNL     1       2.070  -0.673   0.235  1.00  0.00     0.003 C 
ATOM      3  C   UNL     1       2.309   0.694   0.890  1.00  0.00     0.009 C 
ATOM      4  C   UNL     1       3.393  -1.242  -0.291  1.00  0.00     0.009 C 
ENDBRANCH   1   2
BRANCH   1   5
ATOM      5  N   UNL     1      -0.300  -0.210  -0.400  1.00  0.00    -0.277 N 
ATOM      6  C   UNL     1      -0.762   1.072  -0.480  1.00  0.00     0.147 A 
ATOM      7  C   UNL     1      -1.125  -1.150   0.186  1.00  0.00     0.332 A 
ATOM      8  C   UNL     1      -1.980   1.434  -0.022  1.00  0.00     0.171 A 
ATOM      9  N   UNL     1      -0.143   2.149  -0.989  1.00  0.00    -0.330 N 
ATOM     10  N   UNL     1      -2.368  -0.793   0.684  1.00  0.00    -0.261 N 
ATOM     11  O   UNL     1      -0.742  -2.352   0.266  1.00  0.00    -0.247 OA
ATOM     12  N   UNL     1      -2.194   2.747  -0.220  1.00  0.00    -0.229 NA
ATOM     13  C   UNL     1      -2.816   0.502   0.563  1.00  0.00     0.284 A 
ATOM     14  C   UNL     1      -1.041   3.149  -0.816  1.00  0.00     0.199 A 
ATOM     15  H   UNL     1       0.806   2.232  -1.414  1.00  0.00     0.169 HD
ATOM     16  C   UNL     1      -3.241  -1.819   1.279  1.00  0.00     0.159 C 
ATOM     17  O   UNL     1      -3.959   0.846   0.971  1.00  0.00    -0.267 OA
ENDBRANCH   1   5
TORSDOF 2
