REMARK SMILES O=C(O)CNC(=O)c1cccc(O)c1
REMARK SMILES IDX 5 1 6 2 7 3 4 5 2 6 1 7 3 8 8 10 14 11 9 12 12 13 10 14
REMARK SMILES IDX 11 15 13 16
REMARK H PARENT 5 4 3 9 13 17
REMARK Flexibility Score: inf
ROOT
ATOM      1  N   UNL     1      -1.573  -0.353  -0.158  1.00  0.00    -0.341 N 
ATOM      2  C   UNL     1      -0.258  -0.905  -0.324  1.00  0.00     0.251 C 
ATOM      3  O   UNL     1      -0.128  -2.068  -0.796  1.00  0.00    -0.269 OA
ATOM      4  H   UNL     1      -1.695   0.526   0.395  1.00  0.00     0.164 HD
ENDROOT
BRANCH   1   5
ATOM      5  C   UNL     1      -2.754  -1.039  -0.682  1.00  0.00     0.238 C 
BRANCH   5   6
ATOM      6  C   UNL     1      -3.991  -0.244  -0.407  1.00  0.00     0.322 C 
ATOM      7  O   UNL     1      -4.639  -0.432   0.657  1.00  0.00    -0.250 OA
BRANCH   6   8
ATOM      8  O   UNL     1      -4.399   0.735  -1.307  1.00  0.00    -0.480 OA
ATOM      9  H   UNL     1      -5.225   1.294  -1.128  1.00  0.00     0.296 HD
ENDBRANCH   6   8
ENDBRANCH   5   6
ENDBRANCH   1   5
BRANCH   2  10
ATOM     10  C   UNL     1       0.952  -0.140   0.066  1.00  0.00     0.043 A 
ATOM     11  C   UNL     1       2.141  -0.821   0.386  1.00  0.00     0.060 A 
ATOM     12  C   UNL     1       0.944   1.267   0.099  1.00  0.00     0.014 A 
ATOM     13  C   UNL     1       3.293  -0.110   0.751  1.00  0.00     0.116 A 
ATOM     14  C   UNL     1       2.094   1.973   0.463  1.00  0.00     0.005 A 
ATOM     15  C   UNL     1       3.265   1.287   0.791  1.00  0.00     0.046 A 
BRANCH  13  16
ATOM     16  O   UNL     1       4.470  -0.782   1.077  1.00  0.00    -0.508 OA
ATOM     17  H   UNL     1       4.524  -1.793   1.058  1.00  0.00     0.293 HD
ENDBRANCH  13  16
ENDBRANCH   2  10
TORSDOF 5
