REMARK SMILES C[C@]12CC[C@H]3[C@@H](CCC4=CC(=O)CC[C@@]43C)[C@@H]1CC[C@H]2O
REMARK SMILES IDX 20 1 19 2 18 3 17 4 6 5 7 6 8 7 9 8 10 9 11 10 12 11 13 12
REMARK SMILES IDX 14 13 15 14 16 15 5 16 4 17 3 18 2 19 1 20 21 21
REMARK H PARENT 21 22
REMARK Flexibility Score: inf
ROOT
ATOM      1  C   UNL     1       3.891   0.415  -0.504  1.00  0.00     0.120 C 
ATOM      2  C   UNL     1       4.133  -1.115  -0.486  1.00  0.00     0.032 C 
ATOM      3  C   UNL     1       2.773  -1.787  -0.221  1.00  0.00     0.007 C 
ATOM      4  C   UNL     1       1.756  -0.664  -0.395  1.00  0.00     0.001 C 
ATOM      5  C   UNL     1       0.342  -0.801   0.215  1.00  0.00    -0.003 C 
ATOM      6  C   UNL     1      -0.359  -2.146  -0.137  1.00  0.00     0.008 C 
ATOM      7  C   UNL     1      -1.644  -2.008  -0.965  1.00  0.00     0.032 C 
ATOM      8  C   UNL     1      -2.571  -0.933  -0.436  1.00  0.00    -0.060 C 
ATOM      9  C   UNL     1      -3.886  -1.044  -0.691  1.00  0.00     0.047 C 
ATOM     10  C   UNL     1      -4.817   0.070  -0.461  1.00  0.00     0.155 C 
ATOM     11  O   UNL     1      -6.055  -0.119  -0.601  1.00  0.00    -0.295 OA
ATOM     12  C   UNL     1      -4.319   1.428  -0.065  1.00  0.00     0.081 C 
ATOM     13  C   UNL     1      -2.804   1.568  -0.287  1.00  0.00     0.019 C 
ATOM     14  C   UNL     1      -1.994   0.331   0.210  1.00  0.00    -0.008 C 
ATOM     15  C   UNL     1      -2.129   0.210   1.750  1.00  0.00     0.016 C 
ATOM     16  C   UNL     1      -0.491   0.449  -0.233  1.00  0.00     0.002 C 
ATOM     17  C   UNL     1       0.217   1.786   0.147  1.00  0.00     0.005 C 
ATOM     18  C   UNL     1       1.687   1.839  -0.344  1.00  0.00     0.010 C 
ATOM     19  C   UNL     1       2.483   0.594   0.115  1.00  0.00    -0.003 C 
ATOM     20  C   UNL     1       2.666   0.642   1.668  1.00  0.00     0.014 C 
ENDROOT
BRANCH   1  21
ATOM     21  O   UNL     1       3.984   0.943  -1.808  1.00  0.00    -0.393 OA
ATOM     22  H   UNL     1       3.425   0.392  -2.414  1.00  0.00     0.210 HD
ENDBRANCH   1  21
TORSDOF 1
