REMARK SMILES CC[C@H](c1ccc(O)cc1)[C@@H](CC)c1ccc(O)cc1
REMARK SMILES IDX 11 1 12 2 13 3 14 4 15 5 20 6 16 7 19 8 17 9 18 10 3 12 2 13
REMARK SMILES IDX 1 14 4 15 5 16 10 17 6 18 9 19 7 20 8 21
REMARK H PARENT 18 11 8 22
REMARK Flexibility Score: inf
ROOT
ATOM      1  C   UNL     1      -0.639   0.917   0.654  1.00  0.00     0.026 C 
ENDROOT
BRANCH   1   2
ATOM      2  C   UNL     1      -0.866   1.622  -0.711  1.00  0.00     0.005 C 
ATOM      3  C   UNL     1      -2.304   2.116  -0.872  1.00  0.00     0.004 C 
ENDBRANCH   1   2
BRANCH   1   4
ATOM      4  C   UNL     1      -1.503  -0.335   0.776  1.00  0.00    -0.044 A 
ATOM      5  C   UNL     1      -1.441  -1.368  -0.181  1.00  0.00     0.008 A 
ATOM      6  C   UNL     1      -2.356  -0.490   1.885  1.00  0.00     0.008 A 
ATOM      7  C   UNL     1      -2.224  -2.516  -0.037  1.00  0.00     0.046 A 
ATOM      8  C   UNL     1      -3.138  -1.640   2.024  1.00  0.00     0.046 A 
ATOM      9  C   UNL     1      -3.075  -2.656   1.063  1.00  0.00     0.115 A 
BRANCH   9  10
ATOM     10  O   UNL     1      -3.849  -3.807   1.192  1.00  0.00    -0.508 OA
ATOM     11  H   UNL     1      -4.475  -3.938   1.978  1.00  0.00     0.293 HD
ENDBRANCH   9  10
ENDBRANCH   1   4
BRANCH   1  12
ATOM     12  C   UNL     1       0.856   0.586   0.994  1.00  0.00     0.026 C 
BRANCH  12  13
ATOM     13  C   UNL     1       1.654   1.715   1.713  1.00  0.00     0.005 C 
ATOM     14  C   UNL     1       1.515   3.137   1.164  1.00  0.00     0.004 C 
ENDBRANCH  12  13
BRANCH  12  15
ATOM     15  C   UNL     1       1.641  -0.092  -0.129  1.00  0.00    -0.044 A 
ATOM     16  C   UNL     1       1.919  -1.472  -0.044  1.00  0.00     0.008 A 
ATOM     17  C   UNL     1       2.106   0.614  -1.256  1.00  0.00     0.008 A 
ATOM     18  C   UNL     1       2.633  -2.123  -1.054  1.00  0.00     0.046 A 
ATOM     19  C   UNL     1       2.820  -0.040  -2.264  1.00  0.00     0.046 A 
ATOM     20  C   UNL     1       3.086  -1.407  -2.167  1.00  0.00     0.115 A 
BRANCH  20  21
ATOM     21  O   UNL     1       3.797  -2.045  -3.181  1.00  0.00    -0.508 OA
ATOM     22  H   UNL     1       4.005  -3.036  -3.139  1.00  0.00     0.293 HD
ENDBRANCH  20  21
ENDBRANCH  12  15
ENDBRANCH   1  12
TORSDOF 7
