REMARK SMILES C[C@]1(c2nc3cccc(C(N)=O)c3[nH]2)CCCN1
REMARK SMILES IDX 3 1 4 2 5 3 6 4 7 5 8 6 9 7 13 8 14 9 2 11 1 12 15 13 18 14
REMARK SMILES IDX 16 15 17 16 10 18 11 19 12 20
REMARK H PARENT 14 10 18 17 11 21 11 22
REMARK Flexibility Score: inf
ROOT
ATOM      1  C   UNL     1      -0.583  -0.421   0.289  1.00  0.00     0.127 A 
ATOM      2  N   UNL     1      -0.312  -1.232  -0.769  1.00  0.00    -0.231 NA
ATOM      3  C   UNL     1       0.965  -0.934  -1.061  1.00  0.00     0.089 A 
ATOM      4  C   UNL     1       1.754  -1.500  -2.057  1.00  0.00     0.030 A 
ATOM      5  C   UNL     1       3.078  -1.045  -2.179  1.00  0.00     0.003 A 
ATOM      6  C   UNL     1       3.577  -0.048  -1.313  1.00  0.00     0.016 A 
ATOM      7  C   UNL     1       2.756   0.515  -0.306  1.00  0.00     0.065 A 
ATOM      8  C   UNL     1       1.439   0.032  -0.221  1.00  0.00     0.078 A 
ATOM      9  N   UNL     1       0.466   0.364   0.642  1.00  0.00    -0.340 N 
ATOM     10  H   UNL     1       0.498   1.065   1.414  1.00  0.00     0.168 HD
ENDROOT
BRANCH   1  11
ATOM     11  C   UNL     1      -1.948  -0.344   0.966  1.00  0.00     0.074 C 
ATOM     12  C   UNL     1      -1.789  -0.493   2.487  1.00  0.00     0.037 C 
ATOM     13  C   UNL     1      -2.624   0.981   0.610  1.00  0.00     0.031 C 
ATOM     14  N   UNL     1      -2.861  -1.387   0.482  1.00  0.00    -0.305 NA
ATOM     15  C   UNL     1      -3.370   0.680  -0.672  1.00  0.00     0.018 C 
ATOM     16  C   UNL     1      -3.588  -0.829  -0.661  1.00  0.00     0.082 C 
ATOM     17  H   UNL     1      -2.361  -2.267   0.212  1.00  0.00     0.123 HD
ENDBRANCH   1  11
BRANCH   7  18
ATOM     18  C   UNL     1       3.271   1.581   0.584  1.00  0.00     0.250 C 
ATOM     19  N   UNL     1       4.650   1.624   0.957  1.00  0.00    -0.366 N 
ATOM     20  O   UNL     1       2.494   2.476   1.012  1.00  0.00    -0.269 OA
ATOM     21  H   UNL     1       5.304   0.848   0.715  1.00  0.00     0.159 HD
ATOM     22  H   UNL     1       5.010   2.414   1.536  1.00  0.00     0.159 HD
ENDBRANCH   7  18
TORSDOF 2
