REMARK SMILES CC(C)=CCC/C(C)=C/CC/C(C)=C/COP(=O)(O)OP(=O)(O)O
REMARK SMILES IDX 12 1 13 2 14 3 11 4 10 5 9 6 7 7 8 8 6 9 5 10 4 11 1 12 2 13
REMARK SMILES IDX 3 14 15 15 16 16 17 17 18 18 19 19 20 21 21 22 22 23 23 24
REMARK SMILES IDX 24 26
REMARK H PARENT 19 20 23 25 24 27
REMARK Flexibility Score: inf
ROOT
ATOM      1  C   UNL     1      -0.962   0.827   0.033  1.00  0.00    -0.075 C 
ATOM      2  C   UNL     1      -1.343   2.102  -0.681  1.00  0.00     0.039 C 
ATOM      3  C   UNL     1      -1.879   0.084   0.693  1.00  0.00     0.001 C 
ENDROOT
BRANCH   1   4
ATOM      4  C   UNL     1       0.483   0.380   0.031  1.00  0.00     0.034 C 
BRANCH   4   5
ATOM      5  C   UNL     1       0.684  -0.814  -0.910  1.00  0.00     0.032 C 
BRANCH   5   6
ATOM      6  C   UNL     1       2.131  -1.232  -0.924  1.00  0.00    -0.028 C 
ATOM      7  C   UNL     1       2.674  -2.128  -0.068  1.00  0.00    -0.077 C 
ATOM      8  C   UNL     1       1.842  -2.863   0.955  1.00  0.00     0.039 C 
BRANCH   7   9
ATOM      9  C   UNL     1       4.171  -2.355  -0.090  1.00  0.00     0.034 C 
BRANCH   9  10
ATOM     10  C   UNL     1       4.892  -1.488   0.953  1.00  0.00     0.032 C 
BRANCH  10  11
ATOM     11  C   UNL     1       4.625  -0.013   0.759  1.00  0.00    -0.028 C 
ATOM     12  C   UNL     1       6.448   0.278  -0.934  1.00  0.00     0.039 C 
ATOM     13  C   UNL     1       5.291   0.783  -0.105  1.00  0.00    -0.080 C 
ATOM     14  C   UNL     1       4.866   2.225  -0.222  1.00  0.00     0.039 C 
ENDBRANCH  10  11
ENDBRANCH   9  10
ENDBRANCH   7   9
ENDBRANCH   5   6
ENDBRANCH   4   5
ENDBRANCH   1   4
BRANCH   3  15
ATOM     15  C   UNL     1      -3.341   0.428   0.763  1.00  0.00     0.201 C 
BRANCH  15  16
ATOM     16  O   UNL     1      -3.913   0.279  -0.514  1.00  0.00    -0.283 OA
BRANCH  16  17
ATOM     17  P   UNL     1      -5.530   0.815  -0.449  1.00  0.00     0.481 P 
ATOM     18  O   UNL     1      -5.548   2.312  -0.234  1.00  0.00    -0.228 OA
BRANCH  17  19
ATOM     19  O   UNL     1      -6.262   0.459  -1.934  1.00  0.00    -0.302 OA
ATOM     20  H   UNL     1      -6.102  -0.509  -2.067  1.00  0.00     0.223 HD
ENDBRANCH  17  19
BRANCH  17  21
ATOM     21  O   UNL     1      -6.340   0.029   0.829  1.00  0.00    -0.185 OA
BRANCH  21  22
ATOM     22  P   UNL     1      -8.002   0.363   0.677  1.00  0.00     0.478 P 
ATOM     23  O   UNL     1      -8.705  -0.138   1.918  1.00  0.00    -0.228 OA
BRANCH  22  24
ATOM     24  O   UNL     1      -8.635  -0.449  -0.668  1.00  0.00    -0.302 OA
ATOM     25  H   UNL     1      -9.571  -0.134  -0.738  1.00  0.00     0.223 HD
ENDBRANCH  22  24
BRANCH  22  26
ATOM     26  O   UNL     1      -8.281   2.029   0.536  1.00  0.00    -0.302 OA
ATOM     27  H   UNL     1      -8.388   2.191  -0.435  1.00  0.00     0.223 HD
ENDBRANCH  22  26
ENDBRANCH  21  22
ENDBRANCH  17  21
ENDBRANCH  16  17
ENDBRANCH  15  16
ENDBRANCH   3  15
TORSDOF 14
