REMARK SMILES CC1CNCCN1S(=O)(=O)c1cccc2cnccc12
REMARK SMILES IDX 8 1 9 2 10 3 7 4 1 5 2 6 3 7 4 8 6 9 5 10 11 12 20 13 12 14
REMARK SMILES IDX 19 15 15 16 13 17 18 18 16 19 14 20 17 21
REMARK H PARENT 4 11
REMARK Flexibility Score: inf
ROOT
ATOM      1  S   UNL     1       0.043  -0.016  -0.918  1.00  0.00     0.244 S 
ATOM      2  O   UNL     1       0.101  -1.046  -2.013  1.00  0.00    -0.207 OA
ATOM      3  O   UNL     1       0.069   1.361  -1.524  1.00  0.00    -0.207 OA
ENDROOT
BRANCH   1   4
ATOM      4  N   UNL     1      -1.428  -0.216   0.012  1.00  0.00    -0.193 NA
ATOM      5  C   UNL     1      -2.999   0.213  -1.920  1.00  0.00     0.027 C 
ATOM      6  C   UNL     1      -2.569  -0.734  -0.779  1.00  0.00     0.084 C 
ATOM      7  C   UNL     1      -3.765  -1.041   0.165  1.00  0.00     0.101 C 
ATOM      8  N   UNL     1      -3.522  -0.558   1.533  1.00  0.00    -0.314 NA
ATOM      9  C   UNL     1      -1.762   1.003   0.773  1.00  0.00     0.118 C 
ATOM     10  C   UNL     1      -3.103   0.847   1.512  1.00  0.00     0.097 C 
ATOM     11  H   UNL     1      -4.422  -0.621   2.064  1.00  0.00     0.122 HD
ENDBRANCH   1   4
BRANCH   1  12
ATOM     12  C   UNL     1       1.464  -0.231   0.123  1.00  0.00     0.090 A 
ATOM     13  C   UNL     1       2.785   0.036  -0.328  1.00  0.00     0.005 A 
ATOM     14  C   UNL     1       1.271  -0.701   1.434  1.00  0.00     0.022 A 
ATOM     15  C   UNL     1       3.068   0.451  -1.645  1.00  0.00     0.030 A 
ATOM     16  C   UNL     1       3.872  -0.129   0.571  1.00  0.00     0.001 A 
ATOM     17  C   UNL     1       2.349  -0.863   2.303  1.00  0.00     0.002 A 
ATOM     18  C   UNL     1       4.386   0.708  -2.027  1.00  0.00     0.111 A 
ATOM     19  C   UNL     1       5.176   0.144   0.136  1.00  0.00     0.119 A 
ATOM     20  C   UNL     1       3.643  -0.572   1.880  1.00  0.00     0.010 A 
ATOM     21  N   UNL     1       5.400   0.553  -1.139  1.00  0.00    -0.264 NA
ENDBRANCH   1  12
TORSDOF 2
