REMARK SMILES O=C(O)Cc1ccc(-c2ccccc2)cc1
REMARK SMILES IDX 4 1 2 2 1 3 3 4 5 6 6 7 16 8 7 9 15 10 8 11 9 12 10 13 14 14
REMARK SMILES IDX 11 15 13 16 12 17
REMARK H PARENT 3 5
REMARK Flexibility Score: inf
ROOT
ATOM      1  C   UNL     1       3.557  -1.458   0.150  1.00  0.00     0.158 C 
ENDROOT
BRANCH   1   2
ATOM      2  C   UNL     1       4.304  -0.776  -0.951  1.00  0.00     0.307 C 
ATOM      3  O   UNL     1       4.347  -1.291  -2.100  1.00  0.00    -0.252 OA
BRANCH   2   4
ATOM      4  O   UNL     1       4.914   0.452  -0.716  1.00  0.00    -0.481 OA
ATOM      5  H   UNL     1       5.410   0.936  -1.455  1.00  0.00     0.296 HD
ENDBRANCH   2   4
ENDBRANCH   1   2
BRANCH   1   6
ATOM      6  C   UNL     1       2.132  -0.979   0.181  1.00  0.00    -0.037 A 
ATOM      7  C   UNL     1       1.150  -1.629  -0.582  1.00  0.00     0.005 A 
ATOM      8  C   UNL     1       1.782   0.154   0.930  1.00  0.00     0.005 A 
ATOM      9  C   UNL     1      -0.168  -1.166  -0.577  1.00  0.00     0.009 A 
ATOM     10  C   UNL     1       0.464   0.618   0.934  1.00  0.00     0.009 A 
ATOM     11  C   UNL     1      -0.527  -0.038   0.182  1.00  0.00    -0.018 A 
BRANCH  11  12
ATOM     12  C   UNL     1      -1.929   0.455   0.186  1.00  0.00    -0.018 A 
ATOM     13  C   UNL     1      -2.202   1.835   0.148  1.00  0.00     0.009 A 
ATOM     14  C   UNL     1      -3.006  -0.451   0.227  1.00  0.00     0.009 A 
ATOM     15  C   UNL     1      -3.523   2.296   0.151  1.00  0.00     0.001 A 
ATOM     16  C   UNL     1      -4.324   0.015   0.231  1.00  0.00     0.001 A 
ATOM     17  C   UNL     1      -4.582   1.387   0.193  1.00  0.00     0.000 A 
ENDBRANCH  11  12
ENDBRANCH   1   6
TORSDOF 4
