REMARK SMILES CN(C)CCN(Cc1ccc(Cl)cc1)c1ccccn1
REMARK SMILES IDX 5 1 4 2 2 3 1 4 3 5 6 6 7 7 8 8 9 9 14 10 10 11 13 12 11 13
REMARK SMILES IDX 12 14 15 15 16 16 20 17 17 18 19 19 18 20
REMARK H PARENT
REMARK Flexibility Score: inf
ROOT
ATOM      1  C   UNL     1       0.806  -1.192   0.190  1.00  0.00     0.134 C 
ENDROOT
BRANCH   1   2
ATOM      2  C   UNL     1       2.248  -0.925   0.635  1.00  0.00     0.105 C 
BRANCH   2   3
ATOM      3  N   UNL     1       3.068  -2.150   0.510  1.00  0.00    -0.308 NA
ATOM      4  C   UNL     1       4.203  -2.101   1.446  1.00  0.00     0.105 C 
ATOM      5  C   UNL     1       3.573  -2.309  -0.865  1.00  0.00     0.105 C 
ENDBRANCH   2   3
ENDBRANCH   1   2
BRANCH   1   6
ATOM      6  N   UNL     1      -0.034  -0.010   0.447  1.00  0.00    -0.351 N 
BRANCH   6   7
ATOM      7  C   UNL     1      -1.065  -0.075   1.498  1.00  0.00     0.153 C 
BRANCH   7   8
ATOM      8  C   UNL     1      -2.441  -0.047   0.887  1.00  0.00    -0.029 A 
ATOM      9  C   UNL     1      -3.297   1.049   1.093  1.00  0.00     0.007 A 
ATOM     10  C   UNL     1      -2.875  -1.118   0.089  1.00  0.00     0.007 A 
ATOM     11  C   UNL     1      -4.566   1.072   0.506  1.00  0.00     0.021 A 
ATOM     12  C   UNL     1      -4.146  -1.094  -0.494  1.00  0.00     0.021 A 
ATOM     13  C   UNL     1      -4.992   0.002  -0.287  1.00  0.00     0.041 A 
ATOM     14  Cl  UNL     1      -6.585   0.032  -1.022  1.00  0.00    -0.084 Cl
ENDBRANCH   7   8
ENDBRANCH   6   7
BRANCH   6  15
ATOM     15  C   UNL     1       0.109   1.157  -0.401  1.00  0.00     0.128 A 
ATOM     16  C   UNL     1      -0.275   2.441   0.034  1.00  0.00     0.047 A 
ATOM     17  N   UNL     1       0.638   1.018  -1.652  1.00  0.00    -0.239 NA
ATOM     18  C   UNL     1      -0.126   3.534  -0.823  1.00  0.00     0.005 A 
ATOM     19  C   UNL     1       0.795   2.071  -2.497  1.00  0.00     0.113 A 
ATOM     20  C   UNL     1       0.409   3.351  -2.098  1.00  0.00     0.020 A 
ENDBRANCH   6  15
ENDBRANCH   1   6
TORSDOF 6
