REMARK SMILES O=C([C@@H]1C[C@H](N2CCN(c3ncccn3)CC2)CN1)N1CCC(F)(F)C1
REMARK SMILES IDX 5 1 18 2 19 3 3 4 4 5 6 7 7 8 17 9 8 10 16 11 9 12 10 13
REMARK SMILES IDX 11 14 15 15 12 16 14 17 13 18 2 19 1 20 20 21 21 22 26 23
REMARK SMILES IDX 22 24 23 25 24 26 25 27
REMARK H PARENT 19 6
REMARK Flexibility Score: inf
ROOT
ATOM      1  C   UNL     1      -0.105   0.540   0.981  1.00  0.00     0.072 C 
ATOM      2  C   UNL     1       0.587   0.433   2.341  1.00  0.00     0.100 C 
ATOM      3  N   UNL     1       1.923  -0.133   2.137  1.00  0.00    -0.304 NA
ATOM      4  C   UNL     1       2.173  -0.140   0.692  1.00  0.00     0.145 C 
ATOM      5  C   UNL     1       1.073   0.683   0.032  1.00  0.00     0.049 C 
ATOM      6  H   UNL     1       1.926  -1.123   2.485  1.00  0.00     0.123 HD
ENDROOT
BRANCH   1   7
ATOM      7  N   UNL     1      -1.042   1.697   0.913  1.00  0.00    -0.296 NA
ATOM      8  C   UNL     1      -1.607   1.929  -0.435  1.00  0.00     0.106 C 
ATOM      9  C   UNL     1      -2.144   1.620   1.898  1.00  0.00     0.106 C 
ATOM     10  C   UNL     1      -2.575   0.819  -0.867  1.00  0.00     0.135 C 
ATOM     11  C   UNL     1      -3.149   0.503   1.577  1.00  0.00     0.135 C 
ATOM     12  N   UNL     1      -3.583   0.560   0.172  1.00  0.00    -0.338 N 
BRANCH  12  13
ATOM     13  C   UNL     1      -4.852  -0.020  -0.201  1.00  0.00     0.225 A 
ATOM     14  N   UNL     1      -5.188  -0.161  -1.516  1.00  0.00    -0.221 NA
ATOM     15  N   UNL     1      -5.725  -0.446   0.755  1.00  0.00    -0.221 NA
ATOM     16  C   UNL     1      -6.371  -0.717  -1.889  1.00  0.00     0.117 A 
ATOM     17  C   UNL     1      -6.921  -1.003   0.424  1.00  0.00     0.117 A 
ATOM     18  C   UNL     1      -7.269  -1.155  -0.918  1.00  0.00     0.040 A 
ENDBRANCH  12  13
ENDBRANCH   1   7
BRANCH   4  19
ATOM     19  C   UNL     1       3.543   0.427   0.405  1.00  0.00     0.239 C 
ATOM     20  O   UNL     1       3.833   1.569   0.860  1.00  0.00    -0.273 OA
BRANCH  19  21
ATOM     21  N   UNL     1       4.523  -0.294  -0.372  1.00  0.00    -0.335 N 
ATOM     22  C   UNL     1       5.860   0.219  -0.613  1.00  0.00     0.126 C 
ATOM     23  C   UNL     1       4.338  -1.636  -0.903  1.00  0.00     0.196 C 
ATOM     24  C   UNL     1       6.645  -0.938  -1.220  1.00  0.00     0.100 C 
ATOM     25  C   UNL     1       5.599  -1.940  -1.703  1.00  0.00     0.267 C 
ATOM     26  F   UNL     1       6.024  -3.242  -1.487  1.00  0.00    -0.205 F 
ATOM     27  F   UNL     1       5.358  -1.753  -3.055  1.00  0.00    -0.205 F 
ENDBRANCH  19  21
ENDBRANCH   4  19
TORSDOF 4
