REMARK SMILES CCCCCCCCc1ccc(CCC(N)(CO)CO)cc1
REMARK SMILES IDX 8 1 7 2 6 3 5 4 4 5 3 6 2 7 1 8 9 9 10 10 22 11 11 12 21 13
REMARK SMILES IDX 12 14 13 15 14 16 15 17 16 18 17 21 18 22 19 24 20 25
REMARK H PARENT 16 19 16 20 18 23 20 26
REMARK Flexibility Score: inf
ROOT
ATOM      1  C   UNL     1       1.784  -2.272   0.501  1.00  0.00     0.035 C 
ENDROOT
BRANCH   1   2
ATOM      2  C   UNL     1       2.674  -2.226  -0.753  1.00  0.00     0.005 C 
BRANCH   2   3
ATOM      3  C   UNL     1       3.025  -0.805  -1.238  1.00  0.00     0.000 C 
BRANCH   3   4
ATOM      4  C   UNL     1       3.825   0.051  -0.239  1.00  0.00     0.000 C 
BRANCH   4   5
ATOM      5  C   UNL     1       5.232  -0.506   0.034  1.00  0.00    -0.000 C 
BRANCH   5   6
ATOM      6  C   UNL     1       6.032   0.351   1.034  1.00  0.00    -0.000 C 
BRANCH   6   7
ATOM      7  C   UNL     1       6.365   1.775   0.552  1.00  0.00    -0.003 C 
ATOM      8  C   UNL     1       7.217   1.796  -0.716  1.00  0.00     0.004 C 
ENDBRANCH   6   7
ENDBRANCH   5   6
ENDBRANCH   4   5
ENDBRANCH   3   4
ENDBRANCH   2   3
ENDBRANCH   1   2
BRANCH   1   9
ATOM      9  C   UNL     1       0.445  -1.617   0.275  1.00  0.00    -0.048 A 
ATOM     10  C   UNL     1      -0.535  -2.264  -0.495  1.00  0.00     0.004 A 
ATOM     11  C   UNL     1       0.170  -0.349   0.812  1.00  0.00     0.004 A 
ATOM     12  C   UNL     1      -1.770  -1.651  -0.727  1.00  0.00     0.004 A 
ATOM     13  C   UNL     1      -1.064   0.264   0.580  1.00  0.00     0.004 A 
ATOM     14  C   UNL     1      -2.038  -0.377  -0.201  1.00  0.00    -0.048 A 
BRANCH  14  15
ATOM     15  C   UNL     1      -3.381   0.268  -0.421  1.00  0.00     0.037 C 
BRANCH  15  16
ATOM     16  C   UNL     1      -4.361  -0.149   0.690  1.00  0.00     0.032 C 
BRANCH  16  17
ATOM     17  C   UNL     1      -5.763   0.545   0.662  1.00  0.00     0.063 C 
BRANCH  17  18
ATOM     18  N   UNL     1      -6.558   0.039   1.794  1.00  0.00    -0.321 NA
ATOM     19  H   UNL     1      -6.053   0.213   2.693  1.00  0.00     0.119 HD
ATOM     20  H   UNL     1      -6.671  -0.998   1.709  1.00  0.00     0.119 HD
ENDBRANCH  17  18
BRANCH  17  21
ATOM     21  C   UNL     1      -5.651   2.085   0.813  1.00  0.00     0.180 C 
BRANCH  21  22
ATOM     22  O   UNL     1      -4.924   2.421   1.964  1.00  0.00    -0.394 OA
ATOM     23  H   UNL     1      -4.900   3.413   1.997  1.00  0.00     0.210 HD
ENDBRANCH  21  22
ENDBRANCH  17  21
BRANCH  17  24
ATOM     24  C   UNL     1      -6.541   0.201  -0.636  1.00  0.00     0.180 C 
BRANCH  24  25
ATOM     25  O   UNL     1      -6.022   0.877  -1.750  1.00  0.00    -0.394 OA
ATOM     26  H   UNL     1      -6.565   0.585  -2.528  1.00  0.00     0.210 HD
ENDBRANCH  24  25
ENDBRANCH  17  24
ENDBRANCH  16  17
ENDBRANCH  15  16
ENDBRANCH  14  15
ENDBRANCH   1   9
TORSDOF 15
