REMARK SMILES CNC(=O)c1ccc(N2C(=S)N(c3ccc(C#N)c(C(F)(F)F)c3)C(=O)C2(C)C)cc1F
REMARK SMILES IDX 9 1 10 2 11 3 12 4 25 5 26 6 27 7 28 8 29 9 8 10 5 11 31 12
REMARK SMILES IDX 6 13 32 14 30 15 7 16 3 17 1 18 2 19 4 21 13 22 14 23 24 24
REMARK SMILES IDX 15 25 19 26 16 27 20 28 21 29 22 30 23 31 17 32 18 33
REMARK H PARENT 2 20
REMARK Flexibility Score: inf
ROOT
ATOM      1  N   UNL     1       0.190  -0.426  -0.276  1.00  0.00    -0.303 N 
ATOM      2  C   UNL     1      -0.616   0.348   0.616  1.00  0.00     0.188 C 
ATOM      3  S   UNL     1      -0.047   0.925   2.045  1.00  0.00    -0.039 S 
ATOM      4  N   UNL     1      -2.003   0.208   0.333  1.00  0.00    -0.255 N 
ATOM      5  C   UNL     1      -2.058  -0.641  -0.808  1.00  0.00     0.259 C 
ATOM      6  O   UNL     1      -3.133  -0.952  -1.389  1.00  0.00    -0.271 OA
ATOM      7  C   UNL     1      -0.690  -1.073  -1.264  1.00  0.00     0.121 C 
ATOM      8  C   UNL     1      -0.411  -0.543  -2.680  1.00  0.00     0.046 C 
ATOM      9  C   UNL     1      -0.564  -2.601  -1.202  1.00  0.00     0.046 C 
ENDROOT
BRANCH   1  10
ATOM     10  C   UNL     1       1.615  -0.289  -0.400  1.00  0.00     0.047 A 
ATOM     11  C   UNL     1       4.407  -0.013  -0.651  1.00  0.00     0.075 A 
ATOM     12  C   UNL     1       3.839  -1.262  -0.330  1.00  0.00     0.138 A 
ATOM     13  C   UNL     1       3.561   1.098  -0.814  1.00  0.00     0.019 A 
ATOM     14  F   UNL     1       4.621  -2.342  -0.078  1.00  0.00    -0.206 F 
ATOM     15  C   UNL     1       2.452  -1.394  -0.209  1.00  0.00     0.066 A 
ATOM     16  C   UNL     1       2.177   0.960  -0.691  1.00  0.00     0.027 A 
BRANCH  11  17
ATOM     17  C   UNL     1       5.872   0.159  -0.790  1.00  0.00     0.253 C 
ATOM     18  C   UNL     1       8.143  -0.789  -1.359  1.00  0.00     0.143 C 
ATOM     19  N   UNL     1       6.688  -0.882  -1.347  1.00  0.00    -0.355 N 
ATOM     20  H   UNL     1       6.241  -1.708  -1.803  1.00  0.00     0.163 HD
ATOM     21  O   UNL     1       6.402   1.249  -0.440  1.00  0.00    -0.269 OA
ENDBRANCH  11  17
ENDBRANCH   1  10
BRANCH   4  22
ATOM     22  C   UNL     1      -3.110   0.878   0.961  1.00  0.00     0.052 A 
ATOM     23  C   UNL     1      -3.022   2.235   1.292  1.00  0.00     0.028 A 
ATOM     24  C   UNL     1      -4.295   0.178   1.233  1.00  0.00     0.041 A 
ATOM     25  C   UNL     1      -4.098   2.886   1.894  1.00  0.00     0.022 A 
ATOM     26  C   UNL     1      -5.393   0.820   1.840  1.00  0.00     0.075 A 
ATOM     27  C   UNL     1      -5.282   2.191   2.173  1.00  0.00     0.064 A 
BRANCH  26  28
ATOM     28  C   UNL     1      -6.665   0.049   2.134  1.00  0.00     0.417 C 
ATOM     29  F   UNL     1      -6.575  -1.272   1.727  1.00  0.00    -0.166 F 
ATOM     30  F   UNL     1      -7.727   0.635   1.469  1.00  0.00    -0.166 F 
ATOM     31  F   UNL     1      -6.915   0.068   3.494  1.00  0.00    -0.166 F 
ENDBRANCH  26  28
BRANCH  27  32
ATOM     32  C   UNL     1      -6.368   2.908   2.798  1.00  0.00     0.100 C 
ATOM     33  N   UNL     1      -7.238   3.483   3.300  1.00  0.00    -0.192 NA
ENDBRANCH  27  32
ENDBRANCH   4  22
TORSDOF 5
