REMARK SMILES Cc1cc(/C=C/C#N)cc(C)c1Nc1ccnc(Nc2ccc(C#N)cc2)n1
REMARK SMILES IDX 14 1 15 2 16 3 17 4 18 5 28 6 13 7 12 9 1 10 2 11 3 12 4 13
REMARK SMILES IDX 10 14 9 15 11 16 5 17 6 18 7 19 8 20 19 21 20 23 21 24 27 25
REMARK SMILES IDX 22 26 26 27 23 28 24 29 25 30
REMARK H PARENT 13 8 19 22
REMARK Flexibility Score: inf
ROOT
ATOM      1  C   UNL     1       0.151  -0.506  -0.128  1.00  0.00     0.135 A 
ATOM      2  C   UNL     1       0.025   0.837  -0.514  1.00  0.00     0.067 A 
ATOM      3  C   UNL     1       1.172   1.533  -0.893  1.00  0.00     0.119 A 
ATOM      4  N   UNL     1       2.379   0.913  -0.872  1.00  0.00    -0.221 NA
ATOM      5  C   UNL     1       2.496  -0.383  -0.474  1.00  0.00     0.229 A 
ATOM      6  N   UNL     1       1.384  -1.079  -0.116  1.00  0.00    -0.195 NA
ENDROOT
BRANCH   1   7
ATOM      7  N   UNL     1      -0.986  -1.285   0.277  1.00  0.00    -0.340 N 
ATOM      8  H   UNL     1      -0.817  -2.198   0.756  1.00  0.00     0.168 HD
BRANCH   7   9
ATOM      9  C   UNL     1      -2.343  -0.833   0.149  1.00  0.00     0.046 A 
ATOM     10  C   UNL     1      -2.443  -0.583   2.663  1.00  0.00     0.046 C 
ATOM     11  C   UNL     1      -3.077  -0.491   1.302  1.00  0.00    -0.027 A 
ATOM     12  C   UNL     1      -4.400  -0.040   1.176  1.00  0.00     0.013 A 
ATOM     13  C   UNL     1      -5.007   0.069  -0.088  1.00  0.00    -0.024 A 
ATOM     14  C   UNL     1      -2.950  -0.745  -1.123  1.00  0.00    -0.027 A 
ATOM     15  C   UNL     1      -4.266  -0.270  -1.229  1.00  0.00     0.013 A 
ATOM     16  C   UNL     1      -2.200  -1.115  -2.374  1.00  0.00     0.046 C 
BRANCH  13  17
ATOM     17  C   UNL     1      -6.395   0.563  -0.266  1.00  0.00     0.019 C 
ATOM     18  C   UNL     1      -7.323   0.539   0.697  1.00  0.00     0.091 C 
BRANCH  18  19
ATOM     19  C   UNL     1      -8.653   1.022   0.438  1.00  0.00     0.091 C 
ATOM     20  N   UNL     1      -9.723   1.410   0.229  1.00  0.00    -0.193 NA
ENDBRANCH  18  19
ENDBRANCH  13  17
ENDBRANCH   7   9
ENDBRANCH   1   7
BRANCH   5  21
ATOM     21  N   UNL     1       3.770  -1.043  -0.480  1.00  0.00    -0.324 N 
ATOM     22  H   UNL     1       3.773  -2.088  -0.463  1.00  0.00     0.170 HD
BRANCH  21  23
ATOM     23  C   UNL     1       5.031  -0.365  -0.618  1.00  0.00     0.041 A 
ATOM     24  C   UNL     1       5.257   0.890  -0.025  1.00  0.00     0.027 A 
ATOM     25  C   UNL     1       6.079  -0.995  -1.305  1.00  0.00     0.027 A 
ATOM     26  C   UNL     1       6.500   1.518  -0.152  1.00  0.00     0.021 A 
ATOM     27  C   UNL     1       7.322  -0.367  -1.433  1.00  0.00     0.021 A 
ATOM     28  C   UNL     1       7.534   0.893  -0.860  1.00  0.00     0.052 A 
BRANCH  28  29
ATOM     29  C   UNL     1       8.814   1.539  -0.990  1.00  0.00     0.099 C 
ATOM     30  N   UNL     1       9.842   2.058  -1.095  1.00  0.00    -0.192 NA
ENDBRANCH  28  29
ENDBRANCH  21  23
ENDBRANCH   5  21
TORSDOF 7
