REMARK SMILES CC#CCn1c(N2CCC[C@@H](N)C2)nc2c1c(=O)n(Cc1nc(C)c3ccccc3n1)c(=O)n2C
REMARK SMILES IDX 5 1 6 2 14 3 15 4 16 5 17 6 18 7 19 8 32 9 33 10 34 11 35 12
REMARK SMILES IDX 4 13 3 14 1 15 2 16 7 17 8 18 13 19 9 20 11 21 10 22 12 23
REMARK SMILES IDX 20 26 21 27 31 28 22 29 30 30 23 31 25 32 29 33 24 34 26 35
REMARK SMILES IDX 28 36 27 37
REMARK H PARENT 12 24 12 25
REMARK Flexibility Score: inf
ROOT
ATOM      1  N   UNL     1       1.303   0.528   0.361  1.00  0.00    -0.292 N 
ATOM      2  C   UNL     1       2.155  -0.440   0.800  1.00  0.00     0.209 A 
ATOM      3  N   UNL     1       1.843  -1.684   0.351  1.00  0.00    -0.194 NA
ATOM      4  C   UNL     1       0.756  -1.461  -0.411  1.00  0.00     0.170 A 
ATOM      5  C   UNL     1       0.433  -0.145  -0.420  1.00  0.00     0.155 A 
ATOM      6  C   UNL     1      -0.644   0.304  -1.177  1.00  0.00     0.282 A 
ATOM      7  O   UNL     1      -0.954   1.526  -1.195  1.00  0.00    -0.267 OA
ATOM      8  N   UNL     1      -1.359  -0.618  -1.909  1.00  0.00    -0.251 N 
ATOM      9  C   UNL     1      -1.016  -1.960  -1.866  1.00  0.00     0.332 A 
ATOM     10  O   UNL     1      -1.689  -2.803  -2.526  1.00  0.00    -0.247 OA
ATOM     11  N   UNL     1       0.048  -2.391  -1.106  1.00  0.00    -0.279 N 
ATOM     12  C   UNL     1       0.449  -3.804  -1.095  1.00  0.00     0.157 C 
ENDROOT
BRANCH   1  13
ATOM     13  C   UNL     1       1.315   1.956   0.685  1.00  0.00     0.215 C 
BRANCH  13  14
ATOM     14  C   UNL     1       2.017   2.700  -0.364  1.00  0.00    -0.081 C 
ATOM     15  C   UNL     1       3.313   4.027  -2.282  1.00  0.00     0.107 C 
ATOM     16  C   UNL     1       2.601   3.303  -1.230  1.00  0.00    -0.105 C 
ENDBRANCH  13  14
ENDBRANCH   1  13
BRANCH   2  17
ATOM     17  N   UNL     1       3.305  -0.194   1.626  1.00  0.00    -0.341 N 
ATOM     18  C   UNL     1       3.646  -1.158   2.678  1.00  0.00     0.120 C 
ATOM     19  C   UNL     1       4.324   0.774   1.185  1.00  0.00     0.138 C 
ATOM     20  C   UNL     1       4.882  -1.979   2.276  1.00  0.00     0.023 C 
ATOM     21  C   UNL     1       5.736   0.354   1.641  1.00  0.00     0.070 C 
ATOM     22  C   UNL     1       5.917  -1.167   1.465  1.00  0.00     0.022 C 
BRANCH  21  23
ATOM     23  N   UNL     1       6.749   1.101   0.892  1.00  0.00    -0.326 NA
ATOM     24  H   UNL     1       7.691   0.870   1.285  1.00  0.00     0.119 HD
ATOM     25  H   UNL     1       6.746   0.788  -0.107  1.00  0.00     0.119 HD
ENDBRANCH  21  23
ENDBRANCH   2  17
BRANCH   8  26
ATOM     26  C   UNL     1      -2.534  -0.174  -2.685  1.00  0.00     0.208 C 
BRANCH  26  27
ATOM     27  C   UNL     1      -3.732  -0.065  -1.793  1.00  0.00     0.149 A 
ATOM     28  N   UNL     1      -4.456   1.083  -1.762  1.00  0.00    -0.231 NA
ATOM     29  N   UNL     1      -4.101  -1.120  -1.018  1.00  0.00    -0.236 NA
ATOM     30  C   UNL     1      -5.545   1.204  -0.961  1.00  0.00     0.074 A 
ATOM     31  C   UNL     1      -5.178  -1.061  -0.191  1.00  0.00     0.049 A 
ATOM     32  C   UNL     1      -5.944   0.125  -0.140  1.00  0.00     0.022 A 
ATOM     33  C   UNL     1      -6.271   2.401  -0.950  1.00  0.00     0.029 A 
ATOM     34  C   UNL     1      -5.507  -2.267   0.640  1.00  0.00     0.067 C 
ATOM     35  C   UNL     1      -7.076   0.271   0.686  1.00  0.00     0.012 A 
ATOM     36  C   UNL     1      -7.391   2.533  -0.126  1.00  0.00     0.002 A 
ATOM     37  C   UNL     1      -7.792   1.472   0.690  1.00  0.00     0.001 A 
ENDBRANCH  26  27
ENDBRANCH   8  26
TORSDOF 6
