REMARK SMILES CC(C)C(=O)O[C@@H](OC(=O)NC[C@H](CC(=O)O)c1ccc(Cl)cc1)C(C)C
REMARK SMILES IDX 9 1 10 2 11 3 8 5 7 6 25 7 26 8 27 9 6 10 4 11 5 12 2 13
REMARK SMILES IDX 1 14 3 15 12 16 13 17 14 18 15 19 16 20 17 21 18 23 19 24
REMARK SMILES IDX 24 25 20 26 23 27 21 28 22 29
REMARK H PARENT 11 4 17 22
REMARK Flexibility Score: inf
ROOT
ATOM      1  C   UNL     1      -0.664  -0.027  -1.164  1.00  0.00     0.410 C 
ATOM      2  O   UNL     1      -1.205   1.104  -1.303  1.00  0.00    -0.224 OA
ATOM      3  N   UNL     1       0.761  -0.140  -1.103  1.00  0.00    -0.321 N 
ATOM      4  H   UNL     1       1.171  -1.097  -1.015  1.00  0.00     0.167 HD
ENDROOT
BRANCH   1   5
ATOM      5  O   UNL     1      -1.441  -1.186  -1.083  1.00  0.00    -0.409 OA
BRANCH   5   6
ATOM      6  C   UNL     1      -2.855  -1.195  -0.875  1.00  0.00     0.374 C 
BRANCH   6   7
ATOM      7  C   UNL     1      -3.459  -2.430  -1.572  1.00  0.00     0.065 C 
ATOM      8  C   UNL     1      -4.990  -2.425  -1.467  1.00  0.00     0.015 C 
ATOM      9  C   UNL     1      -2.891  -3.741  -1.009  1.00  0.00     0.015 C 
ENDBRANCH   6   7
BRANCH   6  10
ATOM     10  O   UNL     1      -3.131  -1.255   0.525  1.00  0.00    -0.425 OA
BRANCH  10  11
ATOM     11  C   UNL     1      -3.051  -0.156   1.388  1.00  0.00     0.311 C 
ATOM     12  O   UNL     1      -2.887   1.010   0.937  1.00  0.00    -0.252 OA
BRANCH  11  13
ATOM     13  C   UNL     1      -3.176  -0.370   2.869  1.00  0.00     0.093 C 
ATOM     14  C   UNL     1      -2.048  -1.278   3.368  1.00  0.00     0.019 C 
ATOM     15  C   UNL     1      -4.548  -0.962   3.205  1.00  0.00     0.019 C 
ENDBRANCH  11  13
ENDBRANCH  10  11
ENDBRANCH   6  10
ENDBRANCH   5   6
ENDBRANCH   1   5
BRANCH   3  16
ATOM     16  C   UNL     1       1.627   1.040  -1.137  1.00  0.00     0.128 C 
BRANCH  16  17
ATOM     17  C   UNL     1       3.104   0.670  -0.858  1.00  0.00     0.050 C 
BRANCH  17  18
ATOM     18  C   UNL     1       3.343   0.142   0.578  1.00  0.00     0.132 C 
BRANCH  18  19
ATOM     19  C   UNL     1       2.977   1.125   1.650  1.00  0.00     0.304 C 
ATOM     20  O   UNL     1       3.837   1.940   2.082  1.00  0.00    -0.252 OA
BRANCH  19  21
ATOM     21  O   UNL     1       1.680   1.149   2.155  1.00  0.00    -0.481 OA
ATOM     22  H   UNL     1       1.414   1.816   2.869  1.00  0.00     0.296 HD
ENDBRANCH  19  21
ENDBRANCH  18  19
ENDBRANCH  17  18
BRANCH  17  23
ATOM     23  C   UNL     1       4.063   1.804  -1.194  1.00  0.00    -0.042 A 
ATOM     24  C   UNL     1       3.794   3.140  -0.827  1.00  0.00     0.005 A 
ATOM     25  C   UNL     1       5.282   1.512  -1.832  1.00  0.00     0.005 A 
ATOM     26  C   UNL     1       4.711   4.154  -1.118  1.00  0.00     0.021 A 
ATOM     27  C   UNL     1       6.196   2.529  -2.122  1.00  0.00     0.021 A 
ATOM     28  C   UNL     1       5.911   3.850  -1.768  1.00  0.00     0.041 A 
ATOM     29  Cl  UNL     1       7.062   5.124  -2.125  1.00  0.00    -0.084 Cl
ENDBRANCH  17  23
ENDBRANCH  16  17
ENDBRANCH   3  16
TORSDOF 12
