REMARK SMILES O=C(O[C@H]1[C@H](OC(=O)c2cccnc2)[C@@H](OC(=O)c2cccnc2)[C@H](OC(=O)c2cccnc2)[C@@H](OC(=O)c2cccnc2)[C@H]1OC(=O)c1cccnc1)c1cccnc1
REMARK SMILES IDX 25 1 15 2 5 3 4 4 45 5 35 6 26 7 27 8 28 9 29 10 30 11 34 12
REMARK SMILES IDX 31 13 33 14 32 15 16 16 17 17 18 18 19 19 20 20 24 21 21 22
REMARK SMILES IDX 23 23 22 24 36 25 37 26 38 27 39 28 40 29 44 30 41 31 43 32
REMARK SMILES IDX 42 33 6 34 7 35 8 36 9 37 10 38 14 39 11 40 13 41 12 42
REMARK SMILES IDX 46 43 47 44 48 45 49 46 50 47 54 48 51 49 53 50 52 51 3 52
REMARK SMILES IDX 2 53 1 54 55 55 56 56 60 57 57 58 59 59 58 60
REMARK H PARENT
REMARK Flexibility Score: inf
ROOT
ATOM      1  C   UNL     1       0.365  -1.358   0.241  1.00  0.00     0.266 C 
ATOM      2  C   UNL     1      -1.012  -0.733   0.544  1.00  0.00     0.266 C 
ATOM      3  C   UNL     1      -0.901   0.808   0.586  1.00  0.00     0.266 C 
ATOM      4  C   UNL     1       0.145   1.250   1.633  1.00  0.00     0.266 C 
ATOM      5  C   UNL     1       1.516   0.610   1.353  1.00  0.00     0.266 C 
ATOM      6  C   UNL     1       1.394  -0.928   1.301  1.00  0.00     0.266 C 
ENDROOT
BRANCH   1   7
ATOM      7  O   UNL     1       0.266  -2.783   0.251  1.00  0.00    -0.450 OA
BRANCH   7   8
ATOM      8  C   UNL     1      -0.096  -3.546  -0.867  1.00  0.00     0.340 C 
ATOM      9  O   UNL     1      -0.264  -2.992  -1.988  1.00  0.00    -0.246 OA
BRANCH   8  10
ATOM     10  C   UNL     1      -0.266  -5.008  -0.733  1.00  0.00     0.078 A 
ATOM     11  C   UNL     1      -0.575  -5.808  -1.847  1.00  0.00     0.019 A 
ATOM     12  C   UNL     1      -0.117  -5.633   0.517  1.00  0.00     0.126 A 
ATOM     13  C   UNL     1      -0.729  -7.187  -1.699  1.00  0.00     0.021 A 
ATOM     14  N   UNL     1      -0.270  -6.979   0.633  1.00  0.00    -0.264 NA
ATOM     15  C   UNL     1      -0.570  -7.761  -0.437  1.00  0.00     0.111 A 
ENDBRANCH   8  10
ENDBRANCH   7   8
ENDBRANCH   1   7
BRANCH   2  16
ATOM     16  O   UNL     1      -1.936  -1.133  -0.471  1.00  0.00    -0.450 OA
BRANCH  16  17
ATOM     17  C   UNL     1      -3.302  -1.354  -0.242  1.00  0.00     0.340 C 
ATOM     18  O   UNL     1      -3.774  -1.258   0.924  1.00  0.00    -0.246 OA
BRANCH  17  19
ATOM     19  C   UNL     1      -4.188  -1.701  -1.374  1.00  0.00     0.078 A 
ATOM     20  C   UNL     1      -3.672  -1.801  -2.677  1.00  0.00     0.019 A 
ATOM     21  C   UNL     1      -5.559  -1.946  -1.176  1.00  0.00     0.126 A 
ATOM     22  C   UNL     1      -4.514  -2.133  -3.739  1.00  0.00     0.021 A 
ATOM     23  N   UNL     1      -6.357  -2.272  -2.227  1.00  0.00    -0.264 NA
ATOM     24  C   UNL     1      -5.868  -2.368  -3.492  1.00  0.00     0.111 A 
ENDBRANCH  17  19
ENDBRANCH  16  17
ENDBRANCH   2  16
BRANCH   6  25
ATOM     25  O   UNL     1       2.656  -1.515   0.984  1.00  0.00    -0.450 OA
BRANCH  25  26
ATOM     26  C   UNL     1       3.687  -1.685   1.917  1.00  0.00     0.340 C 
ATOM     27  O   UNL     1       3.504  -1.382   3.129  1.00  0.00    -0.246 OA
BRANCH  26  28
ATOM     28  C   UNL     1       4.991  -2.221   1.476  1.00  0.00     0.078 A 
ATOM     29  C   UNL     1       6.015  -2.487   2.401  1.00  0.00     0.019 A 
ATOM     30  C   UNL     1       5.235  -2.476   0.115  1.00  0.00     0.126 A 
ATOM     31  C   UNL     1       7.237  -2.999   1.963  1.00  0.00     0.021 A 
ATOM     32  N   UNL     1       6.439  -2.966  -0.285  1.00  0.00    -0.264 NA
ATOM     33  C   UNL     1       7.434  -3.232   0.602  1.00  0.00     0.111 A 
ENDBRANCH  26  28
ENDBRANCH  25  26
ENDBRANCH   6  25
BRANCH   3  34
ATOM     34  O   UNL     1      -2.164   1.382   0.927  1.00  0.00    -0.450 OA
BRANCH  34  35
ATOM     35  C   UNL     1      -3.105   1.824  -0.012  1.00  0.00     0.340 C 
ATOM     36  O   UNL     1      -2.864   1.732  -1.247  1.00  0.00    -0.246 OA
BRANCH  35  37
ATOM     37  C   UNL     1      -4.387   2.396   0.452  1.00  0.00     0.078 A 
ATOM     38  C   UNL     1      -4.644   2.554   1.822  1.00  0.00     0.019 A 
ATOM     39  C   UNL     1      -5.375   2.796  -0.465  1.00  0.00     0.126 A 
ATOM     40  C   UNL     1      -5.854   3.107   2.249  1.00  0.00     0.021 A 
ATOM     41  N   UNL     1      -6.543   3.336  -0.024  1.00  0.00    -0.264 NA
ATOM     42  C   UNL     1      -6.800   3.498   1.301  1.00  0.00     0.111 A 
ENDBRANCH  35  37
ENDBRANCH  34  35
ENDBRANCH   3  34
BRANCH   5  43
ATOM     43  O   UNL     1       2.030   1.113   0.115  1.00  0.00    -0.450 OA
BRANCH  43  44
ATOM     44  C   UNL     1       3.392   1.277  -0.164  1.00  0.00     0.340 C 
ATOM     45  O   UNL     1       4.249   1.138   0.752  1.00  0.00    -0.246 OA
BRANCH  44  46
ATOM     46  C   UNL     1       3.818   1.625  -1.535  1.00  0.00     0.078 A 
ATOM     47  C   UNL     1       5.176   1.805  -1.848  1.00  0.00     0.019 A 
ATOM     48  C   UNL     1       2.870   1.778  -2.562  1.00  0.00     0.126 A 
ATOM     49  C   UNL     1       5.557   2.126  -3.152  1.00  0.00     0.021 A 
ATOM     50  N   UNL     1       3.268   2.091  -3.824  1.00  0.00    -0.264 NA
ATOM     51  C   UNL     1       4.579   2.267  -4.137  1.00  0.00     0.111 A 
ENDBRANCH  44  46
ENDBRANCH  43  44
ENDBRANCH   5  43
BRANCH   4  52
ATOM     52  O   UNL     1       0.292   2.671   1.602  1.00  0.00    -0.450 OA
BRANCH  52  53
ATOM     53  C   UNL     1      -0.536   3.558   2.301  1.00  0.00     0.340 C 
ATOM     54  O   UNL     1      -1.355   3.122   3.158  1.00  0.00    -0.246 OA
BRANCH  53  55
ATOM     55  C   UNL     1      -0.436   5.010   2.040  1.00  0.00     0.078 A 
ATOM     56  C   UNL     1       0.455   5.501   1.070  1.00  0.00     0.019 A 
ATOM     57  C   UNL     1      -1.234   5.930   2.745  1.00  0.00     0.126 A 
ATOM     58  C   UNL     1       0.537   6.873   0.825  1.00  0.00     0.021 A 
ATOM     59  N   UNL     1      -1.130   7.262   2.489  1.00  0.00    -0.264 NA
ATOM     60  C   UNL     1      -0.271   7.747   1.554  1.00  0.00     0.111 A 
ENDBRANCH  53  55
ENDBRANCH  52  53
ENDBRANCH   4  52
TORSDOF 18
