REMARK SMILES COC[C@H]1OC(=O)c2coc3c2[C@@]1(C)C1=C(C3=O)[C@@H]2CCC(=O)[C@@]2(C)C[C@H]1OC(C)=O
REMARK SMILES IDX 19 1 20 2 21 3 22 4 23 5 24 6 25 7 26 8 27 9 15 10 16 11
REMARK SMILES IDX 17 12 18 13 11 14 12 15 8 16 9 17 10 18 6 19 7 20 5 21 4 22
REMARK SMILES IDX 13 23 14 24 28 25 29 26 30 27 31 28 3 29 2 30 1 31
REMARK H PARENT
REMARK Flexibility Score: inf
ROOT
ATOM      1  C   UNL     1      -1.900  -1.424   1.026  1.00  0.00     0.037 C 
ATOM      2  C   UNL     1      -2.777  -2.650   1.314  1.00  0.00     0.017 C 
ATOM      3  C   UNL     1      -3.949  -2.078   2.127  1.00  0.00     0.077 C 
ATOM      4  C   UNL     1      -3.954  -0.629   1.764  1.00  0.00     0.139 C 
ATOM      5  O   UNL     1      -4.774   0.171   2.188  1.00  0.00    -0.299 OA
ATOM      6  C   UNL     1      -2.890  -0.289   0.775  1.00  0.00     0.037 C 
ATOM      7  C   UNL     1      -3.528  -0.297  -0.640  1.00  0.00     0.020 C 
ATOM      8  C   UNL     1      -2.128   1.010   1.036  1.00  0.00     0.065 C 
ATOM      9  C   UNL     1      -0.879   1.123   0.109  1.00  0.00     0.205 C 
ATOM     10  C   UNL     1      -0.239  -0.216  -0.368  1.00  0.00    -0.008 C 
ATOM     11  C   UNL     1      -0.810  -1.431  -0.023  1.00  0.00     0.011 C 
ATOM     12  C   UNL     1      -0.275  -2.726  -0.549  1.00  0.00     0.224 C 
ATOM     13  O   UNL     1      -0.751  -3.842  -0.212  1.00  0.00    -0.285 OA
ATOM     14  C   UNL     1       0.871  -2.678  -1.429  1.00  0.00     0.179 A 
ATOM     15  C   UNL     1       1.371  -1.496  -1.844  1.00  0.00     0.030 A 
ATOM     16  C   UNL     1       2.565  -1.772  -2.431  1.00  0.00     0.103 A 
ATOM     17  C   UNL     1       2.707  -3.148  -2.411  1.00  0.00     0.212 A 
ATOM     18  O   UNL     1       1.654  -3.669  -1.804  1.00  0.00    -0.460 OA
ATOM     19  C   UNL     1       3.554  -0.710  -2.556  1.00  0.00     0.342 C 
ATOM     20  O   UNL     1       4.627  -0.874  -3.193  1.00  0.00    -0.246 OA
ATOM     21  O   UNL     1       3.261   0.515  -1.932  1.00  0.00    -0.455 OA
ATOM     22  C   UNL     1       2.197   0.643  -0.956  1.00  0.00     0.217 C 
ATOM     23  C   UNL     1       0.903  -0.127  -1.432  1.00  0.00     0.062 C 
ATOM     24  C   UNL     1       0.352   0.555  -2.705  1.00  0.00     0.026 C 
ENDROOT
BRANCH   9  25
ATOM     25  O   UNL     1       0.099   1.937   0.755  1.00  0.00    -0.458 OA
BRANCH  25  26
ATOM     26  C   UNL     1      -0.053   3.315   0.949  1.00  0.00     0.303 C 
ATOM     27  C   UNL     1       0.971   4.067   1.728  1.00  0.00     0.139 C 
ATOM     28  O   UNL     1      -1.023   3.937   0.437  1.00  0.00    -0.253 OA
ENDBRANCH  25  26
ENDBRANCH   9  25
BRANCH  22  29
ATOM     29  C   UNL     1       2.715   0.137   0.413  1.00  0.00     0.206 C 
BRANCH  29  30
ATOM     30  O   UNL     1       4.014   0.635   0.679  1.00  0.00    -0.381 OA
ATOM     31  C   UNL     1       3.942   1.862   1.369  1.00  0.00     0.195 C 
ENDBRANCH  29  30
ENDBRANCH  22  29
TORSDOF 4
