REMARK SMILES CC(=O)OCC(=O)NCCCOc1cccc(CN2CCCCC2)c1
REMARK SMILES IDX 10 1 9 2 8 3 6 4 7 5 5 7 4 8 2 9 1 10 3 11 11 12 12 13 13 14
REMARK SMILES IDX 14 15 25 16 15 17 17 18 16 19 18 20 19 21 20 22 24 23 21 24
REMARK SMILES IDX 23 25 22 26
REMARK H PARENT 8 6
REMARK Flexibility Score: inf
ROOT
ATOM      1  C   UNL     1       2.678   1.409  -0.312  1.00  0.00     0.063 C 
ENDROOT
BRANCH   1   2
ATOM      2  C   UNL     1       3.303   1.215   1.073  1.00  0.00     0.119 C 
BRANCH   2   3
ATOM      3  N   UNL     1       4.760   1.326   1.007  1.00  0.00    -0.353 N 
ATOM      4  C   UNL     1       5.575   1.167   2.175  1.00  0.00     0.258 C 
ATOM      5  O   UNL     1       5.044   0.945   3.297  1.00  0.00    -0.271 OA
ATOM      6  H   UNL     1       5.230   1.517   0.093  1.00  0.00     0.163 HD
BRANCH   4   7
ATOM      7  C   UNL     1       7.067   1.259   2.066  1.00  0.00     0.332 C 
BRANCH   7   8
ATOM      8  O   UNL     1       7.565   0.259   1.181  1.00  0.00    -0.456 OA
BRANCH   8   9
ATOM      9  C   UNL     1       7.581  -1.104   1.493  1.00  0.00     0.303 C 
ATOM     10  C   UNL     1       8.075  -2.083   0.483  1.00  0.00     0.139 C 
ATOM     11  O   UNL     1       7.145  -1.518   2.602  1.00  0.00    -0.253 OA
ENDBRANCH   8   9
ENDBRANCH   7   8
ENDBRANCH   4   7
ENDBRANCH   2   3
ENDBRANCH   1   2
BRANCH   1  12
ATOM     12  C   UNL     1       1.157   1.293  -0.253  1.00  0.00     0.231 C 
BRANCH  12  13
ATOM     13  O   UNL     1       0.618   1.475  -1.560  1.00  0.00    -0.494 OA
BRANCH  13  14
ATOM     14  C   UNL     1      -0.750   1.427  -1.868  1.00  0.00     0.119 A 
ATOM     15  C   UNL     1      -1.137   1.615  -3.200  1.00  0.00     0.046 A 
ATOM     16  C   UNL     1      -1.737   1.196  -0.890  1.00  0.00     0.051 A 
ATOM     17  C   UNL     1      -2.487   1.571  -3.558  1.00  0.00     0.004 A 
ATOM     18  C   UNL     1      -3.095   1.157  -1.245  1.00  0.00    -0.030 A 
ATOM     19  C   UNL     1      -3.463   1.340  -2.587  1.00  0.00     0.005 A 
BRANCH  18  20
ATOM     20  C   UNL     1      -4.141   0.882  -0.195  1.00  0.00     0.120 C 
BRANCH  20  21
ATOM     21  N   UNL     1      -4.055  -0.514   0.286  1.00  0.00    -0.299 NA
ATOM     22  C   UNL     1      -4.358  -1.480  -0.804  1.00  0.00     0.085 C 
ATOM     23  C   UNL     1      -4.865  -0.716   1.517  1.00  0.00     0.085 C 
ATOM     24  C   UNL     1      -4.779  -2.849  -0.258  1.00  0.00     0.016 C 
ATOM     25  C   UNL     1      -6.231  -1.355   1.229  1.00  0.00     0.016 C 
ATOM     26  C   UNL     1      -6.069  -2.737   0.573  1.00  0.00     0.003 C 
ENDBRANCH  20  21
ENDBRANCH  18  20
ENDBRANCH  13  14
ENDBRANCH  12  13
ENDBRANCH   1  12
TORSDOF 10
