REMARK SMILES O=C(O)C[C@H](O)C[C@H](O)/C=C/c1c(C2CC2)nc2ccccc2c1-c1ccc(F)cc1
REMARK SMILES IDX 7 1 5 2 6 3 4 5 2 6 1 7 3 8 8 10 9 11 10 13 11 14 12 15
REMARK SMILES IDX 13 16 24 17 17 18 23 19 18 20 22 21 19 22 21 23 20 24 14 25
REMARK SMILES IDX 15 26 16 27 25 28 26 29 31 30 27 31 30 32 28 33 29 34
REMARK H PARENT 6 4 3 9 9 12
REMARK Flexibility Score: inf
ROOT
ATOM      1  C   UNL     1       3.414   0.826  -0.062  1.00  0.00     0.068 C 
ENDROOT
BRANCH   1   2
ATOM      2  C   UNL     1       2.901   2.292  -0.064  1.00  0.00     0.128 C 
BRANCH   2   3
ATOM      3  O   UNL     1       3.620   3.038   0.885  1.00  0.00    -0.392 OA
ATOM      4  H   UNL     1       3.272   2.782   1.780  1.00  0.00     0.210 HD
ENDBRANCH   2   3
BRANCH   2   5
ATOM      5  C   UNL     1       3.008   2.991  -1.432  1.00  0.00     0.154 C 
BRANCH   5   6
ATOM      6  C   UNL     1       4.419   3.067  -1.936  1.00  0.00     0.305 C 
ATOM      7  O   UNL     1       5.205   3.941  -1.482  1.00  0.00    -0.252 OA
BRANCH   6   8
ATOM      8  O   UNL     1       4.867   2.157  -2.888  1.00  0.00    -0.481 OA
ATOM      9  H   UNL     1       5.821   2.189  -3.229  1.00  0.00     0.296 HD
ENDBRANCH   6   8
ENDBRANCH   5   6
ENDBRANCH   2   5
ENDBRANCH   1   2
BRANCH   1  10
ATOM     10  C   UNL     1       2.593  -0.175  -0.907  1.00  0.00     0.140 C 
BRANCH  10  11
ATOM     11  O   UNL     1       2.834   0.038  -2.273  1.00  0.00    -0.389 OA
ATOM     12  H   UNL     1       2.510  -0.769  -2.753  1.00  0.00     0.211 HD
ENDBRANCH  10  11
BRANCH  10  13
ATOM     13  C   UNL     1       1.116  -0.093  -0.622  1.00  0.00     0.005 C 
ATOM     14  C   UNL     1       0.615  -0.440   0.567  1.00  0.00     0.009 C 
BRANCH  14  15
ATOM     15  C   UNL     1      -0.830  -0.316   0.872  1.00  0.00     0.005 A 
ATOM     16  C   UNL     1      -1.243   0.497   1.949  1.00  0.00     0.052 A 
ATOM     17  C   UNL     1      -1.809  -0.993   0.100  1.00  0.00     0.000 A 
ATOM     18  N   UNL     1      -2.567   0.665   2.198  1.00  0.00    -0.252 NA
ATOM     19  C   UNL     1      -3.180  -0.819   0.413  1.00  0.00     0.009 A 
ATOM     20  C   UNL     1      -3.532   0.041   1.479  1.00  0.00     0.071 A 
ATOM     21  C   UNL     1      -4.211  -1.485  -0.287  1.00  0.00     0.011 A 
ATOM     22  C   UNL     1      -4.876   0.246   1.810  1.00  0.00     0.029 A 
ATOM     23  C   UNL     1      -5.550  -1.274   0.055  1.00  0.00     0.001 A 
ATOM     24  C   UNL     1      -5.882  -0.408   1.097  1.00  0.00     0.002 A 
BRANCH  16  25
ATOM     25  C   UNL     1      -0.248   1.279   2.769  1.00  0.00     0.039 C 
ATOM     26  C   UNL     1       0.536   0.449   3.776  1.00  0.00     0.011 C 
ATOM     27  C   UNL     1      -0.557   1.385   4.257  1.00  0.00     0.011 C 
ENDBRANCH  16  25
BRANCH  17  28
ATOM     28  C   UNL     1      -1.391  -1.894  -1.002  1.00  0.00    -0.017 A 
ATOM     29  C   UNL     1      -1.635  -1.539  -2.339  1.00  0.00     0.012 A 
ATOM     30  C   UNL     1      -0.714  -3.091  -0.718  1.00  0.00     0.012 A 
ATOM     31  C   UNL     1      -1.209  -2.373  -3.377  1.00  0.00     0.040 A 
ATOM     32  C   UNL     1      -0.289  -3.922  -1.759  1.00  0.00     0.040 A 
ATOM     33  C   UNL     1      -0.536  -3.564  -3.087  1.00  0.00     0.123 A 
ATOM     34  F   UNL     1      -0.121  -4.370  -4.095  1.00  0.00    -0.207 F 
ENDBRANCH  17  28
ENDBRANCH  14  15
ENDBRANCH  10  13
ENDBRANCH   1  10
TORSDOF 11
