REMARK SMILES CS(=O)(=O)c1ccc(C(=O)Nc2ccc(Cl)c(-c3ccccn3)c2)c(Cl)c1
REMARK SMILES IDX 9 1 10 2 11 3 8 5 5 6 27 7 6 8 25 9 7 10 26 11 2 12 1 13
REMARK SMILES IDX 3 14 4 15 12 16 13 17 24 18 14 19 17 20 15 21 16 22 18 23
REMARK SMILES IDX 19 24 23 25 20 26 22 27 21 28
REMARK H PARENT 11 4
REMARK Flexibility Score: inf
ROOT
ATOM      1  C   UNL     1       0.741   0.333   0.386  1.00  0.00     0.257 C 
ATOM      2  O   UNL     1       0.154  -0.270   1.325  1.00  0.00    -0.269 OA
ATOM      3  N   UNL     1       0.064   1.378  -0.336  1.00  0.00    -0.322 N 
ATOM      4  H   UNL     1       0.624   1.994  -0.967  1.00  0.00     0.170 HD
ENDROOT
BRANCH   1   5
ATOM      5  C   UNL     1       2.145  -0.012   0.069  1.00  0.00     0.058 A 
ATOM      6  C   UNL     1       4.836  -0.615  -0.509  1.00  0.00     0.068 A 
ATOM      7  C   UNL     1       3.919  -1.646  -0.276  1.00  0.00     0.041 A 
ATOM      8  C   UNL     1       4.411   0.716  -0.443  1.00  0.00     0.021 A 
ATOM      9  C   UNL     1       2.580  -1.356   0.011  1.00  0.00     0.055 A 
ATOM     10  C   UNL     1       3.077   1.016  -0.158  1.00  0.00     0.017 A 
ATOM     11  Cl  UNL     1       1.471  -2.707   0.236  1.00  0.00    -0.083 Cl
BRANCH   6  12
ATOM     12  S   UNL     1       6.522  -0.991  -0.851  1.00  0.00     0.175 S 
ATOM     13  C   UNL     1       7.421  -1.112   0.678  1.00  0.00     0.163 C 
ATOM     14  O   UNL     1       7.124   0.091  -1.703  1.00  0.00    -0.224 OA
ATOM     15  O   UNL     1       6.612  -2.295  -1.593  1.00  0.00    -0.224 OA
ENDBRANCH   6  12
ENDBRANCH   1   5
BRANCH   3  16
ATOM     16  C   UNL     1      -1.335   1.675  -0.192  1.00  0.00     0.042 A 
ATOM     17  C   UNL     1      -1.768   3.003  -0.291  1.00  0.00     0.028 A 
ATOM     18  C   UNL     1      -2.286   0.655  -0.018  1.00  0.00     0.038 A 
ATOM     19  C   UNL     1      -3.122   3.317  -0.165  1.00  0.00     0.023 A 
ATOM     20  C   UNL     1      -3.655   0.957   0.089  1.00  0.00     0.021 A 
ATOM     21  C   UNL     1      -4.069   2.307   0.034  1.00  0.00     0.050 A 
ATOM     22  Cl  UNL     1      -5.747   2.783   0.280  1.00  0.00    -0.084 Cl
BRANCH  20  23
ATOM     23  C   UNL     1      -4.614  -0.154   0.266  1.00  0.00     0.072 A 
ATOM     24  C   UNL     1      -5.728  -0.295  -0.578  1.00  0.00     0.029 A 
ATOM     25  N   UNL     1      -4.380  -1.092   1.227  1.00  0.00    -0.256 NA
ATOM     26  C   UNL     1      -6.593  -1.375  -0.396  1.00  0.00     0.004 A 
ATOM     27  C   UNL     1      -5.211  -2.151   1.417  1.00  0.00     0.111 A 
ATOM     28  C   UNL     1      -6.338  -2.310   0.609  1.00  0.00     0.020 A 
ENDBRANCH  20  23
ENDBRANCH   3  16
TORSDOF 4
