REMARK SMILES CNC(=S)NCCSCc1nc[nH]c1C
REMARK SMILES IDX 6 1 5 2 3 4 4 5 2 6 1 7 7 9 8 10 9 11 10 12 14 13 11 14
REMARK SMILES IDX 15 15 13 16 12 17
REMARK H PARENT 5 3 2 8 13 18
REMARK Flexibility Score: inf
ROOT
ATOM      1  C   UNL     1       1.480   1.626   0.572  1.00  0.00     0.126 C 
ENDROOT
BRANCH   1   2
ATOM      2  N   UNL     1       2.691   0.960   0.092  1.00  0.00    -0.362 N 
ATOM      3  H   UNL     1       3.559   1.099   0.654  1.00  0.00     0.162 HD
BRANCH   2   4
ATOM      4  C   UNL     1       2.750   0.169  -1.113  1.00  0.00     0.166 C 
ATOM      5  S   UNL     1       1.491   0.149  -2.170  1.00  0.00    -0.041 S 
BRANCH   4   6
ATOM      6  N   UNL     1       3.924  -0.593  -1.436  1.00  0.00    -0.366 N 
ATOM      7  C   UNL     1       5.082  -0.682  -0.555  1.00  0.00     0.142 C 
ATOM      8  H   UNL     1       3.945  -1.137  -2.329  1.00  0.00     0.162 HD
ENDBRANCH   4   6
ENDBRANCH   2   4
ENDBRANCH   1   2
BRANCH   1   9
ATOM      9  C   UNL     1       0.521   0.608   1.191  1.00  0.00     0.091 C 
BRANCH   9  10
ATOM     10  S   UNL     1      -1.011   1.429   1.760  1.00  0.00    -0.154 SA
BRANCH  10  11
ATOM     11  C   UNL     1      -1.914   1.338   0.172  1.00  0.00     0.127 C 
BRANCH  11  12
ATOM     12  C   UNL     1      -2.454  -0.042  -0.054  1.00  0.00     0.071 A 
ATOM     13  C   UNL     1      -3.484  -0.654   0.632  1.00  0.00     0.035 A 
ATOM     14  N   UNL     1      -1.952  -0.899  -0.966  1.00  0.00    -0.241 NA
ATOM     15  C   UNL     1      -4.269  -0.093   1.775  1.00  0.00     0.066 C 
ATOM     16  N   UNL     1      -3.621  -1.902   0.158  1.00  0.00    -0.348 N 
ATOM     17  C   UNL     1      -2.691  -2.019  -0.808  1.00  0.00     0.197 A 
ATOM     18  H   UNL     1      -4.296  -2.633   0.476  1.00  0.00     0.167 HD
ENDBRANCH  11  12
ENDBRANCH  10  11
ENDBRANCH   9  10
ENDBRANCH   1   9
TORSDOF 7
