REMARK SMILES CCCCC(C)(C)[C@H](O)/C=C/[C@H]1[C@H](O)CC(=O)[C@@H]1CCCC/C=C/C(=O)OC
REMARK SMILES IDX 12 1 13 2 15 3 16 4 17 5 18 6 11 7 10 8 8 9 5 10 6 11 7 12
REMARK SMILES IDX 4 13 3 14 2 15 1 16 9 17 14 19 19 21 20 22 21 23 22 24 23 25
REMARK SMILES IDX 24 26 25 27 26 28 27 29 28 30
REMARK H PARENT 9 18 14 20
REMARK Flexibility Score: inf
ROOT
ATOM      1  C   UNL     1      -0.013  -2.526  -1.609  1.00  0.00     0.051 C 
ATOM      2  C   UNL     1      -0.162  -3.141  -3.016  1.00  0.00     0.129 C 
ATOM      3  C   UNL     1       1.151  -3.872  -3.300  1.00  0.00     0.108 C 
ATOM      4  C   UNL     1       2.124  -3.193  -2.417  1.00  0.00     0.139 C 
ATOM      5  O   UNL     1       3.332  -3.341  -2.531  1.00  0.00    -0.299 OA
ATOM      6  C   UNL     1       1.504  -2.286  -1.407  1.00  0.00     0.065 C 
ENDROOT
BRANCH   1   7
ATOM      7  C   UNL     1      -0.831  -1.260  -1.465  1.00  0.00    -0.022 C 
ATOM      8  C   UNL     1      -2.173  -1.303  -1.415  1.00  0.00     0.001 C 
BRANCH   8   9
ATOM      9  C   UNL     1      -3.007  -0.061  -1.175  1.00  0.00     0.142 C 
BRANCH   9  10
ATOM     10  C   UNL     1      -3.453   0.107   0.325  1.00  0.00    -0.006 C 
ATOM     11  C   UNL     1      -4.137  -1.180   0.853  1.00  0.00     0.014 C 
ATOM     12  C   UNL     1      -2.211   0.375   1.211  1.00  0.00     0.014 C 
BRANCH  10  13
ATOM     13  C   UNL     1      -4.477   1.276   0.485  1.00  0.00     0.009 C 
BRANCH  13  14
ATOM     14  C   UNL     1      -3.977   2.665   0.027  1.00  0.00     0.000 C 
BRANCH  14  15
ATOM     15  C   UNL     1      -5.067   3.742   0.161  1.00  0.00    -0.003 C 
ATOM     16  C   UNL     1      -5.353   4.121   1.615  1.00  0.00     0.004 C 
ENDBRANCH  14  15
ENDBRANCH  13  14
ENDBRANCH  10  13
ENDBRANCH   9  10
BRANCH   9  17
ATOM     17  O   UNL     1      -4.106  -0.045  -2.054  1.00  0.00    -0.388 OA
ATOM     18  H   UNL     1      -4.637  -0.869  -1.911  1.00  0.00     0.211 HD
ENDBRANCH   9  17
ENDBRANCH   8   9
ENDBRANCH   1   7
BRANCH   2  19
ATOM     19  O   UNL     1      -1.256  -4.024  -3.061  1.00  0.00    -0.392 OA
ATOM     20  H   UNL     1      -1.363  -4.294  -4.011  1.00  0.00     0.210 HD
ENDBRANCH   2  19
BRANCH   6  21
ATOM     21  C   UNL     1       1.992  -2.636   0.023  1.00  0.00     0.012 C 
BRANCH  21  22
ATOM     22  C   UNL     1       1.624  -1.553   1.066  1.00  0.00     0.001 C 
BRANCH  22  23
ATOM     23  C   UNL     1       2.841  -0.735   1.537  1.00  0.00     0.004 C 
BRANCH  23  24
ATOM     24  C   UNL     1       3.442   0.126   0.416  1.00  0.00     0.027 C 
BRANCH  24  25
ATOM     25  C   UNL     1       4.674   0.839   0.901  1.00  0.00    -0.019 C 
ATOM     26  C   UNL     1       4.870   2.143   0.672  1.00  0.00     0.089 C 
BRANCH  26  27
ATOM     27  C   UNL     1       6.122   2.823   1.048  1.00  0.00     0.330 C 
ATOM     28  O   UNL     1       6.240   4.061   0.834  1.00  0.00    -0.247 OA
BRANCH  27  29
ATOM     29  O   UNL     1       7.176   2.098   1.618  1.00  0.00    -0.466 OA
ATOM     30  C   UNL     1       8.415   2.700   1.978  1.00  0.00     0.282 C 
ENDBRANCH  27  29
ENDBRANCH  26  27
ENDBRANCH  24  25
ENDBRANCH  23  24
ENDBRANCH  22  23
ENDBRANCH  21  22
ENDBRANCH   6  21
TORSDOF 15
