REMARK SMILES CC(C(=O)O)c1ccc(N2Cc3ccccc3C2=O)cc1
REMARK SMILES IDX 1 1 2 2 3 3 4 4 5 5 6 7 7 8 21 9 8 10 20 11 9 12 10 13 11 14
REMARK SMILES IDX 18 15 12 16 17 17 19 18 13 19 16 20 14 21 15 22
REMARK H PARENT 5 6
REMARK Flexibility Score: inf
ROOT
ATOM      1  C   UNL     1      -4.832  -1.090  -1.313  1.00  0.00     0.025 C 
ATOM      2  C   UNL     1      -4.349   0.142  -0.536  1.00  0.00     0.126 C 
ENDROOT
BRANCH   2   3
ATOM      3  C   UNL     1      -5.027   0.263   0.802  1.00  0.00     0.310 C 
ATOM      4  O   UNL     1      -5.242  -0.758   1.512  1.00  0.00    -0.252 OA
BRANCH   3   5
ATOM      5  O   UNL     1      -5.376   1.521   1.282  1.00  0.00    -0.481 OA
ATOM      6  H   UNL     1      -5.818   1.628   2.187  1.00  0.00     0.296 HD
ENDBRANCH   3   5
ENDBRANCH   2   3
BRANCH   2   7
ATOM      7  C   UNL     1      -2.842   0.134  -0.373  1.00  0.00    -0.034 A 
ATOM      8  C   UNL     1      -2.063   1.134  -0.978  1.00  0.00     0.007 A 
ATOM      9  C   UNL     1      -2.197  -0.873   0.367  1.00  0.00     0.007 A 
ATOM     10  C   UNL     1      -0.673   1.134  -0.839  1.00  0.00     0.026 A 
ATOM     11  C   UNL     1      -0.806  -0.872   0.506  1.00  0.00     0.026 A 
ATOM     12  C   UNL     1      -0.029   0.138  -0.086  1.00  0.00     0.044 A 
BRANCH  12  13
ATOM     13  N   UNL     1       1.406   0.141   0.044  1.00  0.00    -0.304 N 
ATOM     14  C   UNL     1       2.343   0.617  -0.984  1.00  0.00     0.162 C 
ATOM     15  C   UNL     1       2.169  -0.384   1.133  1.00  0.00     0.258 C 
ATOM     16  C   UNL     1       3.691   0.282  -0.414  1.00  0.00    -0.015 A 
ATOM     17  C   UNL     1       3.574  -0.299   0.828  1.00  0.00     0.045 A 
ATOM     18  O   UNL     1       1.683  -0.796   2.220  1.00  0.00    -0.269 OA
ATOM     19  C   UNL     1       4.947   0.505  -0.982  1.00  0.00     0.006 A 
ATOM     20  C   UNL     1       4.688  -0.687   1.572  1.00  0.00     0.014 A 
ATOM     21  C   UNL     1       6.089   0.120  -0.258  1.00  0.00     0.000 A 
ATOM     22  C   UNL     1       5.960  -0.473   1.015  1.00  0.00     0.001 A 
ENDBRANCH  12  13
ENDBRANCH   2   7
TORSDOF 4
