REMARK SMILES O=C(O[C@H]1C[N+]2(CCCOc3ccccc3)CCC1CC2)C(O)(c1cccs1)c1cccs1
REMARK SMILES IDX 4 1 5 2 6 3 17 4 18 5 19 6 20 7 21 8 3 9 2 10 1 11 22 12
REMARK SMILES IDX 23 13 24 15 25 16 28 17 26 18 27 19 29 20 30 21 33 22 31 23
REMARK SMILES IDX 32 24 7 25 8 26 9 27 10 28 11 29 12 30 16 31 13 32 15 33
REMARK SMILES IDX 14 34
REMARK H PARENT 23 14
REMARK Flexibility Score: inf
ROOT
ATOM      1  C   UNL     1      -1.505  -0.848  -1.298  1.00  0.00     0.235 C 
ATOM      2  C   UNL     1      -0.484   0.322  -1.226  1.00  0.00     0.310 C 
ATOM      3  N   UNL     1       0.931  -0.170  -1.199  1.00  0.00    -0.320 N 
ATOM      4  C   UNL     1       1.105  -1.030   0.011  1.00  0.00     0.264 C 
ATOM      5  C   UNL     1       0.130  -2.236  -0.010  1.00  0.00     0.069 C 
ATOM      6  C   UNL     1      -0.734  -2.178  -1.283  1.00  0.00     0.047 C 
ATOM      7  C   UNL     1       0.200  -2.193  -2.504  1.00  0.00     0.069 C 
ATOM      8  C   UNL     1       1.177  -0.991  -2.424  1.00  0.00     0.264 C 
ENDROOT
BRANCH   1   9
ATOM      9  O   UNL     1      -2.415  -0.805  -0.198  1.00  0.00    -0.453 OA
BRANCH   9  10
ATOM     10  C   UNL     1      -3.415   0.164  -0.064  1.00  0.00     0.349 C 
ATOM     11  O   UNL     1      -3.573   1.040  -0.961  1.00  0.00    -0.248 OA
BRANCH  10  12
ATOM     12  C   UNL     1      -4.346   0.104   1.131  1.00  0.00     0.231 C 
BRANCH  12  13
ATOM     13  O   UNL     1      -3.587  -0.140   2.294  1.00  0.00    -0.369 OA
ATOM     14  H   UNL     1      -3.180  -1.044   2.220  1.00  0.00     0.213 HD
ENDBRANCH  12  13
BRANCH  12  15
ATOM     15  C   UNL     1      -5.367  -1.004   0.951  1.00  0.00     0.053 A 
ATOM     16  C   UNL     1      -5.923  -1.442  -0.251  1.00  0.00     0.019 A 
ATOM     17  S   UNL     1      -6.155  -1.804   2.207  1.00  0.00    -0.145 S 
ATOM     18  C   UNL     1      -6.918  -2.412  -0.084  1.00  0.00     0.012 A 
ATOM     19  C   UNL     1      -7.170  -2.733   1.243  1.00  0.00     0.065 A 
ENDBRANCH  12  15
BRANCH  12  20
ATOM     20  C   UNL     1      -5.062   1.427   1.308  1.00  0.00     0.053 A 
ATOM     21  C   UNL     1      -4.571   2.527   2.008  1.00  0.00     0.019 A 
ATOM     22  S   UNL     1      -6.492   1.899   0.545  1.00  0.00    -0.145 S 
ATOM     23  C   UNL     1      -5.391   3.659   1.920  1.00  0.00     0.012 A 
ATOM     24  C   UNL     1      -6.520   3.472   1.134  1.00  0.00     0.065 A 
ENDBRANCH  12  20
ENDBRANCH  10  12
ENDBRANCH   9  10
ENDBRANCH   1   9
BRANCH   3  25
ATOM     25  C   UNL     1       1.824   1.031  -1.146  1.00  0.00     0.267 C 
BRANCH  25  26
ATOM     26  C   UNL     1       3.340   0.745  -1.259  1.00  0.00     0.103 C 
BRANCH  26  27
ATOM     27  C   UNL     1       4.150   2.030  -1.053  1.00  0.00     0.235 C 
BRANCH  27  28
ATOM     28  O   UNL     1       5.547   1.775  -1.209  1.00  0.00    -0.493 OA
BRANCH  28  29
ATOM     29  C   UNL     1       6.369   1.129  -0.271  1.00  0.00     0.119 A 
ATOM     30  C   UNL     1       5.919   0.758   1.013  1.00  0.00     0.046 A 
ATOM     31  C   UNL     1       7.694   0.852  -0.635  1.00  0.00     0.046 A 
ATOM     32  C   UNL     1       6.786   0.117   1.904  1.00  0.00     0.004 A 
ATOM     33  C   UNL     1       8.557   0.211   0.259  1.00  0.00     0.004 A 
ATOM     34  C   UNL     1       8.103  -0.157   1.528  1.00  0.00     0.000 A 
ENDBRANCH  28  29
ENDBRANCH  27  28
ENDBRANCH  26  27
ENDBRANCH  25  26
ENDBRANCH   3  25
TORSDOF 11
