REMARK SMILES CC(C(O)c1ccc(O)cc1)N1CCC(Cc2ccccc2)CC1
REMARK SMILES IDX 1 1 2 2 3 3 4 4 5 6 6 7 11 8 7 9 10 10 8 11 9 12 12 14 13 15
REMARK SMILES IDX 24 16 14 17 23 18 15 19 16 20 17 21 18 22 22 23 19 24 21 25
REMARK SMILES IDX 20 26
REMARK H PARENT 4 5 9 13
REMARK Flexibility Score: inf
ROOT
ATOM      1  C   UNL     1      -1.843   0.854  -0.970  1.00  0.00     0.028 C 
ATOM      2  C   UNL     1      -1.582  -0.101   0.210  1.00  0.00     0.086 C 
ENDROOT
BRANCH   2   3
ATOM      3  C   UNL     1      -2.655   0.068   1.322  1.00  0.00     0.161 C 
BRANCH   3   4
ATOM      4  O   UNL     1      -2.336  -0.694   2.463  1.00  0.00    -0.387 OA
ATOM      5  H   UNL     1      -2.138  -1.621   2.171  1.00  0.00     0.211 HD
ENDBRANCH   3   4
BRANCH   3   6
ATOM      6  C   UNL     1      -4.052  -0.279   0.838  1.00  0.00    -0.018 A 
ATOM      7  C   UNL     1      -5.024   0.730   0.708  1.00  0.00     0.010 A 
ATOM      8  C   UNL     1      -4.392  -1.600   0.489  1.00  0.00     0.010 A 
ATOM      9  C   UNL     1      -6.308   0.423   0.248  1.00  0.00     0.046 A 
ATOM     10  C   UNL     1      -5.677  -1.903   0.029  1.00  0.00     0.046 A 
ATOM     11  C   UNL     1      -6.637  -0.895  -0.093  1.00  0.00     0.115 A 
BRANCH  11  12
ATOM     12  O   UNL     1      -7.913  -1.212  -0.553  1.00  0.00    -0.508 OA
ATOM     13  H   UNL     1      -8.631  -0.504  -0.653  1.00  0.00     0.293 HD
ENDBRANCH  11  12
ENDBRANCH   3   6
ENDBRANCH   2   3
BRANCH   2  14
ATOM     14  N   UNL     1      -0.223   0.044   0.798  1.00  0.00    -0.298 NA
ATOM     15  C   UNL     1       0.268   1.404   1.118  1.00  0.00     0.085 C 
ATOM     16  C   UNL     1       0.813  -0.894   0.318  1.00  0.00     0.085 C 
ATOM     17  C   UNL     1       1.129   2.012  -0.003  1.00  0.00     0.019 C 
ATOM     18  C   UNL     1       1.643  -0.311  -0.832  1.00  0.00     0.019 C 
ATOM     19  C   UNL     1       2.244   1.062  -0.475  1.00  0.00    -0.004 C 
BRANCH  19  20
ATOM     20  C   UNL     1       3.395   0.982   0.559  1.00  0.00     0.039 C 
BRANCH  20  21
ATOM     21  C   UNL     1       4.580   0.211   0.033  1.00  0.00    -0.048 A 
ATOM     22  C   UNL     1       4.812  -1.112   0.448  1.00  0.00     0.004 A 
ATOM     23  C   UNL     1       5.450   0.801  -0.899  1.00  0.00     0.004 A 
ATOM     24  C   UNL     1       5.900  -1.829  -0.058  1.00  0.00     0.000 A 
ATOM     25  C   UNL     1       6.538   0.080  -1.403  1.00  0.00     0.000 A 
ATOM     26  C   UNL     1       6.763  -1.233  -0.982  1.00  0.00     0.000 A 
ENDBRANCH  20  21
ENDBRANCH  19  20
ENDBRANCH   2  14
TORSDOF 7
