REMARK SMILES Cc1ccc(C(=O)Nc2ccc(CN3CCN(C)CC3)c(C(F)(F)F)c2)cc1C#Cc1cnc2cccnn12
REMARK SMILES IDX 8 1 6 2 7 3 9 5 12 6 11 7 21 8 10 9 26 10 13 11 14 12 18 13
REMARK SMILES IDX 17 14 16 15 19 16 15 17 20 18 22 19 23 20 24 21 25 22 5 23
REMARK SMILES IDX 27 24 4 25 28 26 3 27 2 28 1 29 29 30 30 31 31 32 32 33
REMARK SMILES IDX 39 34 33 35 34 36 38 37 35 38 37 39 36 40
REMARK H PARENT 8 4
REMARK Flexibility Score: inf
ROOT
ATOM      1  N   UNL     1      -0.234  -1.637  -0.013  1.00  0.00    -0.322 N 
ATOM      2  C   UNL     1       0.986  -0.888   0.119  1.00  0.00     0.255 C 
ATOM      3  O   UNL     1       1.023   0.115   0.885  1.00  0.00    -0.269 OA
ATOM      4  H   UNL     1      -0.168  -2.647  -0.277  1.00  0.00     0.170 HD
ENDROOT
BRANCH   1   5
ATOM      5  C   UNL     1      -1.526  -1.128   0.361  1.00  0.00     0.042 A 
ATOM      6  C   UNL     1      -4.098  -0.178   1.041  1.00  0.00    -0.022 A 
ATOM      7  C   UNL     1      -3.127   0.684   0.497  1.00  0.00     0.008 A 
ATOM      8  C   UNL     1      -3.776  -1.551   1.241  1.00  0.00     0.062 A 
ATOM      9  C   UNL     1      -1.859   0.217   0.162  1.00  0.00     0.026 A 
ATOM     10  C   UNL     1      -2.491  -2.004   0.873  1.00  0.00     0.039 A 
BRANCH   6  11
ATOM     11  C   UNL     1      -5.462   0.407   1.360  1.00  0.00     0.120 C 
BRANCH  11  12
ATOM     12  N   UNL     1      -6.522  -0.141   0.483  1.00  0.00    -0.297 NA
ATOM     13  C   UNL     1      -7.780   3.643  -0.770  1.00  0.00     0.105 C 
ATOM     14  N   UNL     1      -7.290   2.358  -0.250  1.00  0.00    -0.304 NA
ATOM     15  C   UNL     1      -6.494   1.654  -1.278  1.00  0.00     0.099 C 
ATOM     16  C   UNL     1      -8.411   1.523   0.209  1.00  0.00     0.099 C 
ATOM     17  C   UNL     1      -6.314   0.156  -0.951  1.00  0.00     0.100 C 
ATOM     18  C   UNL     1      -7.880   0.261   0.925  1.00  0.00     0.100 C 
ENDBRANCH  11  12
ENDBRANCH   6  11
BRANCH   8  19
ATOM     19  C   UNL     1      -4.784  -2.549   1.788  1.00  0.00     0.416 C 
ATOM     20  F   UNL     1      -4.198  -3.776   2.050  1.00  0.00    -0.166 F 
ATOM     21  F   UNL     1      -5.328  -2.090   2.973  1.00  0.00    -0.166 F 
ATOM     22  F   UNL     1      -5.794  -2.748   0.866  1.00  0.00    -0.166 F 
ENDBRANCH   8  19
ENDBRANCH   1   5
BRANCH   2  23
ATOM     23  C   UNL     1       2.220  -1.316  -0.584  1.00  0.00     0.041 A 
ATOM     24  C   UNL     1       3.481  -0.902  -0.119  1.00  0.00     0.031 A 
ATOM     25  C   UNL     1       2.152  -2.136  -1.722  1.00  0.00     0.014 A 
ATOM     26  C   UNL     1       4.654  -1.316  -0.765  1.00  0.00     0.029 A 
ATOM     27  C   UNL     1       3.317  -2.546  -2.373  1.00  0.00     0.005 A 
ATOM     28  C   UNL     1       4.576  -2.143  -1.906  1.00  0.00    -0.035 A 
ATOM     29  C   UNL     1       5.820  -2.619  -2.609  1.00  0.00     0.045 C 
BRANCH  26  30
ATOM     30  C   UNL     1       5.930  -0.894  -0.236  1.00  0.00    -0.060 C 
ATOM     31  C   UNL     1       7.000  -0.551   0.199  1.00  0.00    -0.040 C 
BRANCH  31  32
ATOM     32  C   UNL     1       8.281  -0.150   0.714  1.00  0.00     0.135 A 
ATOM     33  C   UNL     1       9.099  -0.868   1.570  1.00  0.00     0.151 A 
ATOM     34  N   UNL     1       8.905   1.000   0.442  1.00  0.00    -0.205 N 
ATOM     35  N   UNL     1      10.230  -0.160   1.828  1.00  0.00    -0.234 NA
ATOM     36  C   UNL     1      10.061   0.973   1.114  1.00  0.00     0.154 A 
ATOM     37  N   UNL     1       8.515   2.012  -0.331  1.00  0.00    -0.174 NA
ATOM     38  C   UNL     1      10.943   2.045   1.035  1.00  0.00     0.051 A 
ATOM     39  C   UNL     1       9.331   3.098  -0.455  1.00  0.00     0.134 A 
ATOM     40  C   UNL     1      10.563   3.131   0.230  1.00  0.00     0.026 A 
ENDBRANCH  31  32
ENDBRANCH  26  30
ENDBRANCH   2  23
TORSDOF 7
