REMARK SMILES Cc1ccc(Cl)c(OCC(O)CNC(C)(C)C)c1
REMARK SMILES IDX 10 1 9 2 8 3 7 4 1 5 2 6 18 7 3 8 4 9 5 10 6 11 11 12 12 14
REMARK SMILES IDX 13 15 14 17 15 18 16 19 17 20
REMARK H PARENT 11 13 13 16
REMARK Flexibility Score: inf
ROOT
ATOM      1  C   UNL     1       0.066   1.694   0.818  1.00  0.00     0.165 C 
ENDROOT
BRANCH   1   2
ATOM      2  C   UNL     1       0.602   1.655  -0.628  1.00  0.00     0.262 C 
BRANCH   2   3
ATOM      3  O   UNL     1       0.905   0.321  -1.038  1.00  0.00    -0.489 OA
BRANCH   3   4
ATOM      4  C   UNL     1       1.992  -0.450  -0.593  1.00  0.00     0.138 A 
ATOM      5  C   UNL     1       5.187  -0.141   1.472  1.00  0.00     0.044 C 
ATOM      6  C   UNL     1       4.104  -0.715   0.605  1.00  0.00    -0.047 A 
ATOM      7  C   UNL     1       3.033   0.091   0.188  1.00  0.00     0.051 A 
ATOM      8  C   UNL     1       4.120  -2.074   0.264  1.00  0.00     0.005 A 
ATOM      9  C   UNL     1       3.096  -2.614  -0.515  1.00  0.00     0.025 A 
ATOM     10  C   UNL     1       2.038  -1.808  -0.947  1.00  0.00     0.083 A 
ATOM     11  Cl  UNL     1       0.761  -2.518  -1.922  1.00  0.00    -0.080 Cl
ENDBRANCH   3   4
ENDBRANCH   2   3
ENDBRANCH   1   2
BRANCH   1  12
ATOM     12  O   UNL     1      -0.318   3.004   1.147  1.00  0.00    -0.388 OA
ATOM     13  H   UNL     1       0.517   3.523   1.282  1.00  0.00     0.211 HD
ENDBRANCH   1  12
BRANCH   1  14
ATOM     14  C   UNL     1      -1.128   0.748   1.015  1.00  0.00     0.116 C 
BRANCH  14  15
ATOM     15  N   UNL     1      -2.227   1.097   0.096  1.00  0.00    -0.309 NA
ATOM     16  H   UNL     1      -2.701   1.947   0.486  1.00  0.00     0.123 HD
BRANCH  15  17
ATOM     17  C   UNL     1      -3.237   0.032  -0.119  1.00  0.00     0.010 C 
ATOM     18  C   UNL     1      -3.808  -0.498   1.216  1.00  0.00     0.027 C 
ATOM     19  C   UNL     1      -4.396   0.633  -0.942  1.00  0.00     0.027 C 
ATOM     20  C   UNL     1      -2.631  -1.131  -0.937  1.00  0.00     0.027 C 
ENDBRANCH  15  17
ENDBRANCH  14  15
ENDBRANCH   1  14
TORSDOF 7
