REMARK SMILES Nc1cccc2c1C(=O)N(C1CCC(=O)NC1=O)C2=O
REMARK SMILES IDX 2 1 3 2 4 3 5 4 6 5 7 6 8 7 9 8 10 9 19 10 20 11 1 12 11 15
REMARK SMILES IDX 12 16 17 17 13 18 16 19 18 20 14 21 15 23
REMARK H PARENT 1 13 1 14 16 22
REMARK Flexibility Score: inf
ROOT
ATOM      1  C   UNL     1      -3.276   0.675   0.724  1.00  0.00     0.045 A 
ATOM      2  C   UNL     1      -4.364  -0.107   0.285  1.00  0.00     0.026 A 
ATOM      3  C   UNL     1      -4.192  -1.082  -0.719  1.00  0.00     0.003 A 
ATOM      4  C   UNL     1      -2.932  -1.292  -1.299  1.00  0.00     0.015 A 
ATOM      5  C   UNL     1      -1.868  -0.509  -0.857  1.00  0.00     0.055 A 
ATOM      6  C   UNL     1      -2.025   0.448   0.127  1.00  0.00     0.076 A 
ATOM      7  C   UNL     1      -0.705   1.051   0.348  1.00  0.00     0.264 C 
ATOM      8  O   UNL     1      -0.429   1.929   1.207  1.00  0.00    -0.268 OA
ATOM      9  N   UNL     1       0.261   0.477  -0.537  1.00  0.00    -0.262 N 
ATOM     10  C   UNL     1      -0.469  -0.518  -1.262  1.00  0.00     0.262 C 
ATOM     11  O   UNL     1       0.043  -1.302  -2.105  1.00  0.00    -0.269 OA
ENDROOT
BRANCH   1  12
ATOM     12  N   UNL     1      -3.466   1.661   1.744  1.00  0.00    -0.398 N 
ATOM     13  H   UNL     1      -2.688   2.267   2.079  1.00  0.00     0.156 HD
ATOM     14  H   UNL     1      -4.408   1.801   2.173  1.00  0.00     0.156 HD
ENDBRANCH   1  12
BRANCH   9  15
ATOM     15  C   UNL     1       1.718   0.582  -0.400  1.00  0.00     0.184 C 
ATOM     16  C   UNL     1       2.254  -0.599   0.431  1.00  0.00     0.046 C 
ATOM     17  C   UNL     1       2.386   0.642  -1.752  1.00  0.00     0.249 C 
ATOM     18  C   UNL     1       3.784  -0.576   0.514  1.00  0.00     0.103 C 
ATOM     19  N   UNL     1       3.689   0.077  -1.942  1.00  0.00    -0.295 N 
ATOM     20  O   UNL     1       1.830   1.254  -2.704  1.00  0.00    -0.272 OA
ATOM     21  C   UNL     1       4.385  -0.552  -0.860  1.00  0.00     0.226 C 
ATOM     22  H   UNL     1       4.138   0.125  -2.884  1.00  0.00     0.172 HD
ATOM     23  O   UNL     1       5.529  -1.043  -1.053  1.00  0.00    -0.275 OA
ENDBRANCH   9  15
TORSDOF 2
