REMARK SMILES Cc1ccc([C@@H]2O[C@H](CO)[C@@H](O)[C@H](O)[C@H]2O)cc1Cc1ccc(-c2ccc(F)cc2)s1
REMARK SMILES IDX 5 1 4 2 3 3 2 4 1 5 18 6 17 7 6 8 7 9 15 10 8 11 13 12 11 13
REMARK SMILES IDX 16 14 9 16 10 17 14 19 12 21 19 23 20 24 21 25 31 26 22 27
REMARK SMILES IDX 23 28 24 29 25 30 30 31 26 32 29 33 27 34 28 35
REMARK H PARENT 16 15 10 18 14 20 12 22
REMARK Flexibility Score: inf
ROOT
ATOM      1  C   UNL     1      -1.567  -0.100  -1.785  1.00  0.00    -0.016 A 
ATOM      2  C   UNL     1      -1.357   0.282  -3.117  1.00  0.00     0.007 A 
ATOM      3  C   UNL     1      -0.317  -0.280  -3.857  1.00  0.00     0.004 A 
ATOM      4  C   UNL     1       0.535  -1.240  -3.287  1.00  0.00    -0.048 A 
ATOM      5  C   UNL     1       1.650  -1.815  -4.120  1.00  0.00     0.044 C 
ATOM      6  C   UNL     1       0.308  -1.662  -1.952  1.00  0.00    -0.040 A 
ATOM      7  C   UNL     1      -0.739  -1.081  -1.217  1.00  0.00     0.010 A 
ENDROOT
BRANCH   1   8
ATOM      8  C   UNL     1      -2.697   0.509  -0.984  1.00  0.00     0.180 C 
ATOM      9  O   UNL     1      -2.211   0.854   0.303  1.00  0.00    -0.362 OA
ATOM     10  C   UNL     1      -3.869  -0.494  -0.865  1.00  0.00     0.179 C 
ATOM     11  C   UNL     1      -3.196   1.552   1.046  1.00  0.00     0.176 C 
ATOM     12  C   UNL     1      -4.989   0.107   0.006  1.00  0.00     0.177 C 
ATOM     13  C   UNL     1      -4.407   0.629   1.331  1.00  0.00     0.177 C 
BRANCH  10  14
ATOM     14  O   UNL     1      -4.361  -0.853  -2.133  1.00  0.00    -0.387 OA
ATOM     15  H   UNL     1      -4.671  -0.024  -2.582  1.00  0.00     0.211 HD
ENDBRANCH  10  14
BRANCH  11  16
ATOM     16  C   UNL     1      -2.541   2.037   2.351  1.00  0.00     0.191 C 
BRANCH  16  17
ATOM     17  O   UNL     1      -3.390   2.900   3.059  1.00  0.00    -0.394 OA
ATOM     18  H   UNL     1      -3.377   3.769   2.579  1.00  0.00     0.210 HD
ENDBRANCH  16  17
ENDBRANCH  11  16
BRANCH  12  19
ATOM     19  O   UNL     1      -5.961  -0.870   0.278  1.00  0.00    -0.387 OA
ATOM     20  H   UNL     1      -6.530  -0.944  -0.533  1.00  0.00     0.211 HD
ENDBRANCH  12  19
BRANCH  13  21
ATOM     21  O   UNL     1      -5.398   1.342   2.027  1.00  0.00    -0.388 OA
ATOM     22  H   UNL     1      -5.968   0.671   2.486  1.00  0.00     0.211 HD
ENDBRANCH  13  21
ENDBRANCH   1   8
BRANCH   6  23
ATOM     23  C   UNL     1       1.196  -2.674  -1.263  1.00  0.00     0.082 C 
BRANCH  23  24
ATOM     24  C   UNL     1       2.337  -1.988  -0.576  1.00  0.00     0.010 A 
ATOM     25  C   UNL     1       3.679  -2.096  -0.913  1.00  0.00     0.016 A 
ATOM     26  S   UNL     1       2.199  -0.950   0.737  1.00  0.00    -0.140 S 
ATOM     27  C   UNL     1       4.521  -1.332  -0.095  1.00  0.00     0.021 A 
ATOM     28  C   UNL     1       3.846  -0.614   0.897  1.00  0.00     0.035 A 
BRANCH  28  29
ATOM     29  C   UNL     1       4.446   0.287   1.917  1.00  0.00    -0.008 A 
ATOM     30  C   UNL     1       3.628   0.917   2.877  1.00  0.00     0.012 A 
ATOM     31  C   UNL     1       5.834   0.533   1.949  1.00  0.00     0.012 A 
ATOM     32  C   UNL     1       4.184   1.766   3.839  1.00  0.00     0.040 A 
ATOM     33  C   UNL     1       6.383   1.383   2.914  1.00  0.00     0.040 A 
ATOM     34  C   UNL     1       5.560   1.999   3.858  1.00  0.00     0.123 A 
ATOM     35  F   UNL     1       6.095   2.823   4.792  1.00  0.00    -0.207 F 
ENDBRANCH  28  29
ENDBRANCH  23  24
ENDBRANCH   6  23
TORSDOF 9
