REMARK SMILES C/C(O)=C(\C#N)C(=O)Nc1ccc(C(F)(F)F)cc1
REMARK SMILES IDX 7 1 8 2 9 3 4 5 1 6 2 7 3 8 5 10 6 11 10 12 11 13 19 14
REMARK SMILES IDX 12 15 18 16 13 17 14 18 15 19 16 20 17 21
REMARK H PARENT 9 4 3 9
REMARK Flexibility Score: inf
ROOT
ATOM      1  C   UNL     1      -1.328  -0.132  -1.024  1.00  0.00     0.269 C 
ATOM      2  O   UNL     1      -0.830  -0.778  -1.986  1.00  0.00    -0.268 OA
ATOM      3  N   UNL     1      -0.504   0.274   0.084  1.00  0.00    -0.321 N 
ATOM      4  H   UNL     1      -0.955   0.755   0.895  1.00  0.00     0.170 HD
ENDROOT
BRANCH   1   5
ATOM      5  C   UNL     1      -2.765   0.213  -1.066  1.00  0.00     0.154 C 
ATOM      6  C   UNL     1      -5.028   0.419  -0.036  1.00  0.00     0.088 C 
ATOM      7  C   UNL     1      -3.569   0.040   0.005  1.00  0.00     0.113 C 
BRANCH   7   8
ATOM      8  O   UNL     1      -3.060  -0.537   1.169  1.00  0.00    -0.511 OA
ATOM      9  H   UNL     1      -3.640  -0.694   1.985  1.00  0.00     0.293 HD
ENDBRANCH   7   8
BRANCH   5  10
ATOM     10  C   UNL     1      -3.296   0.691  -2.323  1.00  0.00     0.109 C 
ATOM     11  N   UNL     1      -3.720   1.074  -3.330  1.00  0.00    -0.192 NA
ENDBRANCH   5  10
ENDBRANCH   1   5
BRANCH   3  12
ATOM     12  C   UNL     1       0.903  -0.005   0.185  1.00  0.00     0.041 A 
ATOM     13  C   UNL     1       1.453  -0.310   1.438  1.00  0.00     0.027 A 
ATOM     14  C   UNL     1       1.754   0.094  -0.929  1.00  0.00     0.027 A 
ATOM     15  C   UNL     1       2.821  -0.562   1.570  1.00  0.00     0.015 A 
ATOM     16  C   UNL     1       3.123  -0.157  -0.797  1.00  0.00     0.015 A 
ATOM     17  C   UNL     1       3.666  -0.515   0.448  1.00  0.00     0.056 A 
BRANCH  17  18
ATOM     18  C   UNL     1       5.150  -0.737   0.599  1.00  0.00     0.416 C 
ATOM     19  F   UNL     1       5.763   0.469   0.884  1.00  0.00    -0.166 F 
ATOM     20  F   UNL     1       5.409  -1.629   1.626  1.00  0.00    -0.166 F 
ATOM     21  F   UNL     1       5.688  -1.252  -0.568  1.00  0.00    -0.166 F 
ENDBRANCH  17  18
ENDBRANCH   3  12
TORSDOF 5
