REMARK SMILES COC(=O)/C=C/C(=O)OC
REMARK SMILES IDX 6 1 5 2 7 3 8 4 9 5 10 6 3 7 4 8 2 9 1 10
REMARK H PARENT
REMARK Flexibility Score: inf
ROOT
ATOM      1  C   UNL     1       0.486  -0.488   0.217  1.00  0.00     0.101 C 
ATOM      2  C   UNL     1      -0.486   0.323  -0.217  1.00  0.00     0.101 C 
ENDROOT
BRANCH   1   3
ATOM      3  C   UNL     1       1.913  -0.171   0.046  1.00  0.00     0.330 C 
ATOM      4  O   UNL     1       2.272   0.896  -0.526  1.00  0.00    -0.247 OA
BRANCH   3   5
ATOM      5  O   UNL     1       2.868  -1.071   0.528  1.00  0.00    -0.466 OA
ATOM      6  C   UNL     1       4.267  -0.843   0.406  1.00  0.00     0.282 C 
ENDBRANCH   3   5
ENDBRANCH   1   3
BRANCH   2   7
ATOM      7  C   UNL     1      -1.913   0.005  -0.046  1.00  0.00     0.330 C 
ATOM      8  O   UNL     1      -2.272  -1.062   0.526  1.00  0.00    -0.247 OA
BRANCH   7   9
ATOM      9  O   UNL     1      -2.868   0.905  -0.528  1.00  0.00    -0.466 OA
ATOM     10  C   UNL     1      -4.267   0.678  -0.406  1.00  0.00     0.282 C 
ENDBRANCH   7   9
ENDBRANCH   2   7
TORSDOF 4
