REMARK SMILES c1ccc(CN(CC2=NCCN2)c2ccccc2)cc1
REMARK SMILES IDX 6 1 7 2 8 3 9 4 12 5 10 6 11 7 5 9 4 10 3 11 19 12 2 13
REMARK SMILES IDX 20 14 1 15 13 16 14 17 18 18 15 19 17 20 16 21
REMARK H PARENT 12 8
REMARK Flexibility Score: inf
ROOT
ATOM      1  N   UNL     1      -0.343   0.373   1.392  1.00  0.00    -0.360 N 
ENDROOT
BRANCH   1   2
ATOM      2  C   UNL     1       0.330  -0.859   1.816  1.00  0.00     0.191 C 
BRANCH   2   3
ATOM      3  C   UNL     1       1.072  -1.467   0.668  1.00  0.00     0.116 C 
ATOM      4  N   UNL     1       0.501  -2.217  -0.209  1.00  0.00    -0.269 NA
ATOM      5  N   UNL     1       2.419  -1.164   0.370  1.00  0.00    -0.370 N 
ATOM      6  C   UNL     1       1.456  -2.564  -1.254  1.00  0.00     0.165 C 
ATOM      7  C   UNL     1       2.748  -1.820  -0.878  1.00  0.00     0.138 C 
ATOM      8  H   UNL     1       3.044  -0.528   0.915  1.00  0.00     0.161 HD
ENDBRANCH   2   3
ENDBRANCH   1   2
BRANCH   1   9
ATOM      9  C   UNL     1      -1.804   0.430   1.281  1.00  0.00     0.152 C 
BRANCH   9  10
ATOM     10  C   UNL     1      -2.257  -0.265   0.026  1.00  0.00    -0.029 A 
ATOM     11  C   UNL     1      -2.675  -1.606   0.066  1.00  0.00     0.005 A 
ATOM     12  C   UNL     1      -2.203   0.403  -1.208  1.00  0.00     0.005 A 
ATOM     13  C   UNL     1      -3.040  -2.265  -1.112  1.00  0.00     0.000 A 
ATOM     14  C   UNL     1      -2.568  -0.260  -2.384  1.00  0.00     0.000 A 
ATOM     15  C   UNL     1      -2.986  -1.593  -2.336  1.00  0.00     0.000 A 
ENDBRANCH   9  10
ENDBRANCH   1   9
BRANCH   1  16
ATOM     16  C   UNL     1       0.436   1.539   1.093  1.00  0.00     0.037 A 
ATOM     17  C   UNL     1       0.939   1.742  -0.200  1.00  0.00     0.026 A 
ATOM     18  C   UNL     1       0.695   2.483   2.096  1.00  0.00     0.026 A 
ATOM     19  C   UNL     1       1.700   2.879  -0.485  1.00  0.00     0.002 A 
ATOM     20  C   UNL     1       1.456   3.621   1.808  1.00  0.00     0.002 A 
ATOM     21  C   UNL     1       1.959   3.818   0.518  1.00  0.00     0.000 A 
ENDBRANCH   1  16
TORSDOF 5
