REMARK SMILES CC(=O)[C@@]1(O)CC[C@H]2[C@@H]3CCC4=CC(=O)CCC4=C3[C@@H](c3ccc(N(C)C)cc3)C[C@@]21C
REMARK SMILES IDX 20 1 30 2 31 3 32 4 8 5 7 6 6 7 4 8 9 9 10 10 11 11 12 12
REMARK SMILES IDX 13 13 14 14 15 15 16 16 17 17 18 18 19 19 21 20 24 21 23 22
REMARK SMILES IDX 28 23 22 24 29 25 25 26 26 27 27 28 5 29 2 31 1 32 3 33
REMARK H PARENT 5 30
REMARK Flexibility Score: inf
ROOT
ATOM      1  C   UNL     1      -0.199   0.405  -1.315  1.00  0.00     0.046 C 
ATOM      2  C   UNL     1      -1.017  -0.883  -1.657  1.00  0.00     0.023 C 
ATOM      3  C   UNL     1      -1.885  -1.404  -0.492  1.00  0.00     0.008 C 
ATOM      4  C   UNL     1      -0.976  -1.937   0.664  1.00  0.00     0.015 C 
ATOM      5  C   UNL     1      -2.783  -0.245  -0.052  1.00  0.00     0.006 C 
ATOM      6  C   UNL     1      -3.896  -0.896   0.770  1.00  0.00     0.008 C 
ATOM      7  C   UNL     1      -4.032  -2.327   0.221  1.00  0.00     0.044 C 
ATOM      8  C   UNL     1      -2.942  -2.496  -0.883  1.00  0.00     0.128 C 
ATOM      9  C   UNL     1      -2.012   0.924   0.591  1.00  0.00     0.020 C 
ATOM     10  C   UNL     1      -2.983   2.085   0.878  1.00  0.00     0.013 C 
ATOM     11  C   UNL     1      -2.248   3.225   1.567  1.00  0.00     0.036 C 
ATOM     12  C   UNL     1      -1.011   3.611   0.803  1.00  0.00    -0.041 C 
ATOM     13  C   UNL     1      -0.422   4.782   1.093  1.00  0.00     0.051 C 
ATOM     14  C   UNL     1       0.851   5.175   0.473  1.00  0.00     0.156 C 
ATOM     15  O   UNL     1       1.348   6.305   0.724  1.00  0.00    -0.295 OA
ATOM     16  C   UNL     1       1.605   4.200  -0.376  1.00  0.00     0.085 C 
ATOM     17  C   UNL     1       0.645   3.278  -1.132  1.00  0.00     0.044 C 
ATOM     18  C   UNL     1      -0.402   2.676  -0.199  1.00  0.00    -0.044 C 
ATOM     19  C   UNL     1      -0.871   1.395  -0.330  1.00  0.00    -0.056 C 
ENDROOT
BRANCH   1  20
ATOM     20  C   UNL     1       1.239   0.047  -0.933  1.00  0.00    -0.041 A 
ATOM     21  C   UNL     1       3.942  -0.600  -0.335  1.00  0.00     0.036 A 
ATOM     22  C   UNL     1       3.422  -0.781  -1.632  1.00  0.00     0.026 A 
ATOM     23  C   UNL     1       3.084  -0.084   0.657  1.00  0.00     0.026 A 
ATOM     24  C   UNL     1       2.095  -0.460  -1.924  1.00  0.00     0.006 A 
ATOM     25  C   UNL     1       1.757   0.238   0.363  1.00  0.00     0.006 A 
BRANCH  21  26
ATOM     26  N   UNL     1       5.325  -0.928  -0.030  1.00  0.00    -0.378 N 
ATOM     27  C   UNL     1       5.965  -0.413   1.187  1.00  0.00     0.143 C 
ATOM     28  C   UNL     1       6.108  -1.778  -0.937  1.00  0.00     0.143 C 
ENDBRANCH  21  26
ENDBRANCH   1  20
BRANCH   8  29
ATOM     29  O   UNL     1      -3.493  -2.237  -2.160  1.00  0.00    -0.382 OA
ATOM     30  H   UNL     1      -4.142  -1.490  -2.106  1.00  0.00     0.212 HD
ENDBRANCH   8  29
BRANCH   8  31
ATOM     31  C   UNL     1      -2.358  -3.906  -0.963  1.00  0.00     0.161 C 
ATOM     32  C   UNL     1      -2.958  -5.086  -0.248  1.00  0.00     0.091 C 
ATOM     33  O   UNL     1      -1.380  -4.098  -1.671  1.00  0.00    -0.297 OA
ENDBRANCH   8  31
TORSDOF 4
