REMARK SMILES Nc1nc(CC(=O)Nc2ccc(CCNC[C@H](O)c3ccccc3)cc2)cs1
REMARK SMILES IDX 13 1 12 2 9 3 10 4 26 5 11 6 25 7 8 8 6 9 7 10 5 12 4 13
REMARK SMILES IDX 2 14 3 15 28 16 27 17 1 18 14 21 15 22 16 24 17 25 18 26
REMARK SMILES IDX 19 28 20 29 24 30 21 31 23 32 22 33
REMARK H PARENT 8 11 1 19 1 20 15 23 18 27
REMARK Flexibility Score: inf
ROOT
ATOM      1  C   UNL     1      -1.372   0.981  -1.463  1.00  0.00     0.051 C 
ENDROOT
BRANCH   1   2
ATOM      2  C   UNL     1      -0.057   0.434  -0.970  1.00  0.00    -0.047 A 
ATOM      3  C   UNL     1       2.386  -0.605  -0.022  1.00  0.00     0.041 A 
ATOM      4  C   UNL     1       1.950   0.667   0.378  1.00  0.00     0.026 A 
ATOM      5  C   UNL     1       1.567  -1.372  -0.870  1.00  0.00     0.026 A 
ATOM      6  C   UNL     1       0.740   1.185  -0.093  1.00  0.00     0.006 A 
ATOM      7  C   UNL     1       0.358  -0.854  -1.343  1.00  0.00     0.006 A 
BRANCH   3   8
ATOM      8  N   UNL     1       3.627  -1.117   0.493  1.00  0.00    -0.326 N 
ATOM      9  C   UNL     1       4.500  -2.002  -0.229  1.00  0.00     0.230 C 
ATOM     10  O   UNL     1       4.320  -2.226  -1.457  1.00  0.00    -0.274 OA
ATOM     11  H   UNL     1       3.974  -0.734   1.402  1.00  0.00     0.169 HD
BRANCH   9  12
ATOM     12  C   UNL     1       5.693  -2.597   0.455  1.00  0.00     0.157 C 
BRANCH  12  13
ATOM     13  C   UNL     1       6.901  -1.746   0.211  1.00  0.00     0.063 A 
ATOM     14  C   UNL     1       8.197   0.066   0.429  1.00  0.00     0.180 A 
ATOM     15  N   UNL     1       7.045  -0.528   0.803  1.00  0.00    -0.225 NA
ATOM     16  S   UNL     1       9.080  -0.879  -0.644  1.00  0.00    -0.106 S 
ATOM     17  C   UNL     1       7.940  -2.118  -0.642  1.00  0.00     0.093 A 
BRANCH  14  18
ATOM     18  N   UNL     1       8.600   1.351   0.893  1.00  0.00    -0.375 N 
ATOM     19  H   UNL     1       7.985   1.897   1.539  1.00  0.00     0.159 HD
ATOM     20  H   UNL     1       9.516   1.755   0.590  1.00  0.00     0.159 HD
ENDBRANCH  14  18
ENDBRANCH  12  13
ENDBRANCH   9  12
ENDBRANCH   3   8
ENDBRANCH   1   2
BRANCH   1  21
ATOM     21  C   UNL     1      -2.542   0.470  -0.618  1.00  0.00     0.086 C 
BRANCH  21  22
ATOM     22  N   UNL     1      -2.424   0.956   0.765  1.00  0.00    -0.313 NA
ATOM     23  H   UNL     1      -2.615   1.985   0.788  1.00  0.00     0.122 HD
BRANCH  22  24
ATOM     24  C   UNL     1      -3.312   0.242   1.702  1.00  0.00     0.117 C 
BRANCH  24  25
ATOM     25  C   UNL     1      -4.688   0.930   1.885  1.00  0.00     0.158 C 
BRANCH  25  26
ATOM     26  O   UNL     1      -5.390   0.361   2.963  1.00  0.00    -0.387 OA
ATOM     27  H   UNL     1      -5.456  -0.616   2.806  1.00  0.00     0.211 HD
ENDBRANCH  25  26
BRANCH  25  28
ATOM     28  C   UNL     1      -5.538   0.892   0.630  1.00  0.00    -0.018 A 
ATOM     29  C   UNL     1      -5.946  -0.332   0.068  1.00  0.00     0.006 A 
ATOM     30  C   UNL     1      -5.918   2.092   0.000  1.00  0.00     0.006 A 
ATOM     31  C   UNL     1      -6.711  -0.353  -1.102  1.00  0.00     0.000 A 
ATOM     32  C   UNL     1      -6.684   2.065  -1.169  1.00  0.00     0.000 A 
ATOM     33  C   UNL     1      -7.079   0.843  -1.720  1.00  0.00     0.000 A 
ENDBRANCH  25  28
ENDBRANCH  24  25
ENDBRANCH  22  24
ENDBRANCH  21  22
ENDBRANCH   1  21
TORSDOF 11
