REMARK SMILES C[C@@H]1NC(=O)[C@@H]2CCCN2C(=O)[C@H](CC(N)=O)NC(=O)[C@@H]2CSSC[C@H](N)C(=O)N[C@H]3CSSC[C@H](NC1=O)C(=O)N[C@@H]([C@@H](C)O)C(=O)NCC(=O)N[C@H](C(=O)N[C@@H](Cc1ccc(O)cc1)C(=O)O)CSSC[C@H](NC(=O)[C@H](Cc1ccc(O)cc1)NC(=O)[C@H](CCC(=O)O)NC3=O)C(=O)N2
REMARK SMILES IDX 73 1 72 2 71 3 70 4 54 5 55 6 56 7 57 8 58 10 59 11 60 12
REMARK SMILES IDX 61 13 66 14 62 15 65 16 63 17 64 18 67 20 68 21 69 22 53 24
REMARK SMILES IDX 51 25 52 27 50 28 49 29 47 30 48 32 43 33 42 34 40 35 41 37
REMARK SMILES IDX 36 38 37 40 38 41 39 43 44 45 45 46 46 47 74 49 75 50 76 51
REMARK SMILES IDX 77 53 78 54 79 55 80 56 81 57 86 58 82 59 85 60 83 61 84 62
REMARK SMILES IDX 87 64 88 65 89 67 90 68 91 69 92 70 93 71 94 72 95 73 96 75
REMARK SMILES IDX 97 76 98 78 31 79 32 80 33 81 34 82 35 83 30 85 28 86 29 88
REMARK SMILES IDX 99 90 101 91 100 92 21 94 19 95 18 96 20 97 13 99 11 100
REMARK SMILES IDX 12 101 10 102 6 103 9 104 7 105 8 106 4 107 3 108 5 109
REMARK SMILES IDX 2 111 1 112 14 114 15 115 16 116 17 117 22 120 23 121 24 122
REMARK SMILES IDX 25 123 26 124 27 126
REMARK H PARENT 57 9 64 19 69 23 53 26 49 31 42 36 37 42 46 48 75 52 84 63
REMARK H PARENT 87 66 95 74 96 77 30 87 101 93 18 98 3 110 16 118 16 119
REMARK H PARENT 27 127 27 128
REMARK Flexibility Score: 240.00
ROOT
ATOM      1  C   UNL     1       0.989  -3.295  -1.295  1.00  0.00     0.116 C 
ENDROOT
BRANCH   1   2
ATOM      2  S   UNL     1       1.244  -3.416   0.512  1.00  0.00    -0.091 SA
BRANCH   2   3
ATOM      3  S   UNL     1       1.645  -1.345   0.820  1.00  0.00    -0.091 SA
BRANCH   3   4
ATOM      4  C   UNL     1       3.418  -1.460   0.390  1.00  0.00     0.116 C 
BRANCH   4   5
ATOM      5  C   UNL     1       4.152  -0.199   0.874  1.00  0.00     0.182 C 
BRANCH   5   6
ATOM      6  C   UNL     1       5.636  -0.374   0.734  1.00  0.00     0.244 C 
ATOM      7  O   UNL     1       6.326  -0.578   1.768  1.00  0.00    -0.273 OA
ATOM      8  N   UNL     1       6.261  -0.351  -0.564  1.00  0.00    -0.341 N 
ATOM      9  H   UNL     1       5.659  -0.202  -1.404  1.00  0.00     0.164 HD
BRANCH   8  10
ATOM     10  C   UNL     1       7.692  -0.628  -0.760  1.00  0.00     0.196 C 
BRANCH  10  11
ATOM     11  C   UNL     1       7.862  -1.883  -1.633  1.00  0.00     0.072 C 
BRANCH  11  12
ATOM     12  C   UNL     1       9.305  -2.325  -1.694  1.00  0.00    -0.045 A 
ATOM     13  C   UNL     1       9.812  -3.227  -0.745  1.00  0.00     0.007 A 
ATOM     14  C   UNL     1      10.173  -1.782  -2.650  1.00  0.00     0.007 A 
ATOM     15  C   UNL     1      11.161  -3.590  -0.764  1.00  0.00     0.046 A 
ATOM     16  C   UNL     1      11.526  -2.143  -2.670  1.00  0.00     0.046 A 
ATOM     17  C   UNL     1      12.021  -3.049  -1.727  1.00  0.00     0.115 A 
BRANCH  17  18
ATOM     18  O   UNL     1      13.371  -3.395  -1.717  1.00  0.00    -0.508 OA
ATOM     19  H   UNL     1      14.030  -2.981  -2.359  1.00  0.00     0.293 HD
ENDBRANCH  17  18
ENDBRANCH  11  12
ENDBRANCH  10  11
BRANCH  10  20
ATOM     20  C   UNL     1       8.339   0.574  -1.385  1.00  0.00     0.326 C 
ATOM     21  O   UNL     1       9.379   1.064  -0.875  1.00  0.00    -0.250 OA
BRANCH  20  22
ATOM     22  O   UNL     1       7.814   1.122  -2.550  1.00  0.00    -0.480 OA
ATOM     23  H   UNL     1       8.257   1.917  -2.993  1.00  0.00     0.296 HD
ENDBRANCH  20  22
ENDBRANCH  10  20
ENDBRANCH   8  10
ENDBRANCH   5   6
BRANCH   5  24
ATOM     24  N   UNL     1       3.689   0.981   0.131  1.00  0.00    -0.342 N 
ATOM     25  C   UNL     1       3.723   2.328   0.640  1.00  0.00     0.240 C 
ATOM     26  H   UNL     1       3.164   0.836  -0.760  1.00  0.00     0.164 HD
ATOM     27  O   UNL     1       2.879   3.160   0.211  1.00  0.00    -0.273 OA
BRANCH  25  28
ATOM     28  C   UNL     1       4.764   2.783   1.622  1.00  0.00     0.216 C 
BRANCH  28  29
ATOM     29  N   UNL     1       4.650   2.095   2.905  1.00  0.00    -0.345 N 
ATOM     30  C   UNL     1       3.522   2.184   3.786  1.00  0.00     0.245 C 
ATOM     31  H   UNL     1       5.410   1.429   3.169  1.00  0.00     0.164 HD
ATOM     32  O   UNL     1       3.323   1.237   4.592  1.00  0.00    -0.273 OA
BRANCH  30  33
ATOM     33  C   UNL     1       2.685   3.441   3.903  1.00  0.00     0.200 C 
BRANCH  33  34
ATOM     34  N   UNL     1       1.468   3.155   4.678  1.00  0.00    -0.340 N 
ATOM     35  C   UNL     1       0.184   3.675   4.315  1.00  0.00     0.244 C 
ATOM     36  H   UNL     1       1.595   2.867   5.678  1.00  0.00     0.164 HD
ATOM     37  O   UNL     1      -0.237   4.726   4.874  1.00  0.00    -0.273 OA
BRANCH  35  38
ATOM     38  C   UNL     1      -0.707   2.985   3.314  1.00  0.00     0.182 CG0
ATOM     39  G   UNL     1      -0.601   1.454   3.341  1.00  0.00     0.000 G0
BRANCH  38  40
ATOM     40  N   UNL     1      -0.416   3.471   1.965  1.00  0.00    -0.342 N 
ATOM     41  C   UNL     1      -1.403   4.148   1.178  1.00  0.00     0.242 CG1
ATOM     42  H   UNL     1       0.552   3.383   1.596  1.00  0.00     0.164 HD
ATOM     43  O   UNL     1      -2.628   4.014   1.438  1.00  0.00    -0.273 OA
ATOM     44  G   UNL     1      -0.967   5.094   0.092  1.00  0.00     0.000 G1
ENDBRANCH  38  40
ENDBRANCH  35  38
ENDBRANCH  33  34
BRANCH  33  45
ATOM     45  C   UNL     1       3.530   4.557   4.578  1.00  0.00     0.143 C 
ATOM     46  C   UNL     1       2.775   5.878   4.688  1.00  0.00     0.041 C 
BRANCH  45  47
ATOM     47  O   UNL     1       3.937   4.154   5.861  1.00  0.00    -0.391 OA
ATOM     48  H   UNL     1       4.880   3.855   5.796  1.00  0.00     0.211 HD
ENDBRANCH  45  47
ENDBRANCH  33  45
ENDBRANCH  30  33
ENDBRANCH  28  29
ENDBRANCH  25  28
ENDBRANCH   5  24
ENDBRANCH   4   5
ENDBRANCH   3   4
ENDBRANCH   2   3
ENDBRANCH   1   2
BRANCH   1  49
ATOM     49  C   UNL     1      -0.240  -2.446  -1.668  1.00  0.00     0.182 C 
BRANCH  49  50
ATOM     50  N   UNL     1      -1.463  -2.963  -1.034  1.00  0.00    -0.342 N 
ATOM     51  C   UNL     1      -2.081  -4.207  -1.396  1.00  0.00     0.243 C 
ATOM     52  H   UNL     1      -1.699  -2.585  -0.089  1.00  0.00     0.164 HD
ATOM     53  O   UNL     1      -2.800  -4.261  -2.430  1.00  0.00    -0.273 OA
BRANCH  51  54
ATOM     54  C   UNL     1      -1.805  -5.446  -0.584  1.00  0.00     0.175 C 
BRANCH  54  55
ATOM     55  C   UNL     1      -2.632  -6.671  -1.026  1.00  0.00     0.070 C 
BRANCH  55  56
ATOM     56  C   UNL     1      -2.187  -7.906  -0.285  1.00  0.00    -0.045 A 
ATOM     57  C   UNL     1      -1.006  -8.562  -0.658  1.00  0.00     0.007 A 
ATOM     58  C   UNL     1      -2.908  -8.369   0.832  1.00  0.00     0.007 A 
ATOM     59  C   UNL     1      -0.571  -9.691   0.040  1.00  0.00     0.046 A 
ATOM     60  C   UNL     1      -2.466  -9.494   1.535  1.00  0.00     0.046 A 
ATOM     61  C   UNL     1      -1.309 -10.170   1.129  1.00  0.00     0.115 A 
BRANCH  61  62
ATOM     62  O   UNL     1      -0.895 -11.303   1.825  1.00  0.00    -0.508 OA
ATOM     63  H   UNL     1      -0.080 -11.838   1.539  1.00  0.00     0.293 HD
ENDBRANCH  61  62
ENDBRANCH  55  56
ENDBRANCH  54  55
BRANCH  54  64
ATOM     64  N   UNL     1      -1.985  -5.181   0.849  1.00  0.00    -0.342 N 
ATOM     65  C   UNL     1      -3.230  -4.780   1.448  1.00  0.00     0.243 C 
ATOM     66  H   UNL     1      -1.153  -5.308   1.466  1.00  0.00     0.164 HD
ATOM     67  O   UNL     1      -4.247  -4.565   0.733  1.00  0.00    -0.273 OA
BRANCH  65  68
ATOM     68  C   UNL     1      -3.292  -4.558   2.931  1.00  0.00     0.172 C 
BRANCH  68  69
ATOM     69  C   UNL     1      -4.516  -5.235   3.579  1.00  0.00     0.047 C 
BRANCH  69  70
ATOM     70  C   UNL     1      -4.485  -5.218   5.115  1.00  0.00     0.125 C 
BRANCH  70  71
ATOM     71  C   UNL     1      -4.814  -3.872   5.682  1.00  0.00     0.303 C 
ATOM     72  O   UNL     1      -3.962  -3.254   6.377  1.00  0.00    -0.252 OA
BRANCH  71  73
ATOM     73  O   UNL     1      -6.072  -3.317   5.466  1.00  0.00    -0.481 OA
ATOM     74  H   UNL     1      -6.299  -2.394   5.812  1.00  0.00     0.296 HD
ENDBRANCH  71  73
ENDBRANCH  70  71
ENDBRANCH  69  70
ENDBRANCH  68  69
BRANCH  68  75
ATOM     75  N   UNL     1      -3.193  -3.119   3.238  1.00  0.00    -0.342 N 
ATOM     76  C   UNL     1      -4.168  -2.128   2.871  1.00  0.00     0.244 C 
ATOM     77  H   UNL     1      -2.261  -2.769   3.548  1.00  0.00     0.164 HD
ATOM     78  O   UNL     1      -5.330  -2.468   2.504  1.00  0.00    -0.273 OA
BRANCH  76  79
ATOM     79  C   UNL     1      -3.828  -0.669   3.000  1.00  0.00     0.182 C 
BRANCH  79  80
ATOM     80  C   UNL     1      -3.933  -0.254   4.477  1.00  0.00     0.116 C 
BRANCH  80  81
ATOM     81  S   UNL     1      -3.212   1.396   4.775  1.00  0.00    -0.091 SA
BRANCH  81  82
ATOM     82  S   UNL     1      -1.177   0.732   4.928  1.00  0.00    -0.091 SA
BRANCH  82  83
ATOM     83  C   UNL     1      -0.601   1.454   3.341  1.00  0.00     0.116 CG0
ATOM     84  G   UNL     1      -0.707   2.985   3.314  1.00  0.00     0.000 G0
ENDBRANCH  82  83
ENDBRANCH  81  82
ENDBRANCH  80  81
ENDBRANCH  79  80
BRANCH  79  85
ATOM     85  N   UNL     1      -4.696   0.157   2.156  1.00  0.00    -0.342 N 
ATOM     86  C   UNL     1      -4.682   0.068   0.718  1.00  0.00     0.238 CG2
ATOM     87  H   UNL     1      -5.329   0.851   2.618  1.00  0.00     0.164 HD
ATOM     88  O   UNL     1      -3.844  -0.696   0.163  1.00  0.00    -0.273 OA
ATOM     89  G   UNL     1      -5.744   0.779  -0.116  1.00  0.00     0.000 G2
ENDBRANCH  79  85
ENDBRANCH  76  79
ENDBRANCH  68  75
ENDBRANCH  65  68
ENDBRANCH  54  64
ENDBRANCH  51  54
ENDBRANCH  49  50
BRANCH  49  90
ATOM     90  C   UNL     1      -0.376  -2.344  -3.163  1.00  0.00     0.244 C 
ATOM     91  N   UNL     1      -0.290  -1.063  -3.795  1.00  0.00    -0.342 N 
ATOM     92  O   UNL     1      -0.482  -3.381  -3.869  1.00  0.00    -0.273 OA
ATOM     93  H   UNL     1       0.636  -0.854  -4.246  1.00  0.00     0.164 HD
BRANCH  91  94
ATOM     94  C   UNL     1      -1.476  -0.370  -4.318  1.00  0.00     0.182 C 
BRANCH  94  95
ATOM     95  C   UNL     1      -1.140   1.096  -4.558  1.00  0.00     0.244 C 
ATOM     96  N   UNL     1      -1.937   2.160  -4.007  1.00  0.00    -0.342 N 
ATOM     97  O   UNL     1      -0.158   1.370  -5.291  1.00  0.00    -0.273 OA
ATOM     98  H   UNL     1      -2.258   2.050  -3.020  1.00  0.00     0.164 HD
BRANCH  96  99
ATOM     99  C   UNL     1      -2.225   3.433  -4.681  1.00  0.00     0.180 C 
BRANCH  99 100
ATOM    100  C   UNL     1      -3.495   4.009  -4.087  1.00  0.00     0.246 C 
ATOM    101  O   UNL     1      -4.530   3.286  -4.103  1.00  0.00    -0.272 OA
BRANCH 100 102
ATOM    102  N   UNL     1      -3.586   5.343  -3.556  1.00  0.00    -0.329 N 
ATOM    103  C   UNL     1      -2.476   6.241  -3.219  1.00  0.00     0.174 C 
ATOM    104  C   UNL     1      -4.891   5.984  -3.393  1.00  0.00     0.120 C 
ATOM    105  C   UNL     1      -3.134   7.444  -2.536  1.00  0.00     0.037 C 
ATOM    106  C   UNL     1      -4.603   7.413  -2.947  1.00  0.00     0.024 C 
BRANCH 103 107
ATOM    107  C   UNL     1      -1.452   5.603  -2.322  1.00  0.00     0.243 C 
ATOM    108  N   UNL     1      -1.837   4.986  -1.087  1.00  0.00    -0.343 N 
ATOM    109  O   UNL     1      -0.238   5.627  -2.648  1.00  0.00    -0.273 OA
ATOM    110  H   UNL     1      -2.799   4.583  -1.007  1.00  0.00     0.164 HD
BRANCH 108 111
ATOM    111  C   UNL     1      -0.967   5.094   0.092  1.00  0.00     0.168 CG1
ATOM    112  C   UNL     1      -0.991   6.533   0.634  1.00  0.00     0.041 C 
ATOM    113  G   UNL     1      -1.403   4.148   1.178  1.00  0.00     0.000 G1
ENDBRANCH 108 111
ENDBRANCH 103 107
ENDBRANCH 100 102
ENDBRANCH  99 100
BRANCH  99 114
ATOM    114  C   UNL     1      -2.433   3.251  -6.203  1.00  0.00     0.134 C 
BRANCH 114 115
ATOM    115  C   UNL     1      -2.663   4.563  -6.895  1.00  0.00     0.220 C 
ATOM    116  N   UNL     1      -3.976   5.108  -7.018  1.00  0.00    -0.370 N 
ATOM    117  O   UNL     1      -1.682   5.204  -7.351  1.00  0.00    -0.275 OA
ATOM    118  H   UNL     1      -4.795   4.613  -6.609  1.00  0.00     0.159 HD
ATOM    119  H   UNL     1      -4.122   6.011  -7.524  1.00  0.00     0.159 HD
ENDBRANCH 114 115
ENDBRANCH  99 114
ENDBRANCH  96  99
ENDBRANCH  94  95
BRANCH  94 120
ATOM    120  C   UNL     1      -2.698  -0.587  -3.398  1.00  0.00     0.116 C 
BRANCH 120 121
ATOM    121  S   UNL     1      -4.244   0.040  -4.132  1.00  0.00    -0.091 SA
BRANCH 121 122
ATOM    122  S   UNL     1      -5.417  -0.648  -2.491  1.00  0.00    -0.092 SA
BRANCH 122 123
ATOM    123  C   UNL     1      -5.290   0.942  -1.585  1.00  0.00     0.110 C 
BRANCH 123 124
ATOM    124  C   UNL     1      -5.744   0.779  -0.116  1.00  0.00     0.152 CG2
ATOM    125  G   UNL     1      -4.682   0.068   0.718  1.00  0.00     0.000 G2
BRANCH 124 126
ATOM    126  N   UNL     1      -6.063   2.091   0.459  1.00  0.00    -0.319 NA
ATOM    127  H   UNL     1      -6.692   1.943   1.283  1.00  0.00     0.119 HD
ATOM    128  H   UNL     1      -6.637   2.640  -0.216  1.00  0.00     0.119 HD
ENDBRANCH 124 126
ENDBRANCH 123 124
ENDBRANCH 122 123
ENDBRANCH 121 122
ENDBRANCH 120 121
ENDBRANCH  94 120
ENDBRANCH  91  94
ENDBRANCH  49  90
ENDBRANCH   1  49
TORSDOF 19
