REMARK SMILES O=S(=O)(c1cccc2cnccc12)N1CCCNCC1
REMARK SMILES IDX 20 1 14 2 2 3 1 4 3 5 4 6 5 7 13 8 6 9 8 10 12 11 7 12 9 13
REMARK SMILES IDX 11 14 10 15 15 16 16 17 19 19 18 20 17 22
REMARK H PARENT 18 21
REMARK Flexibility Score: 80.00
ROOT
ATOM      1  C   UNL     1       2.501   1.551  -0.221  1.00  0.00     0.118 C 
ENDROOT
BRANCH   1   2
ATOM      2  N   UNL     1       1.439   0.534  -0.070  1.00  0.00    -0.197 NA
BRANCH   2   3
ATOM      3  S   UNL     1      -0.131   1.294   0.099  1.00  0.00     0.243 S 
ATOM      4  O   UNL     1      -0.251   1.861   1.488  1.00  0.00    -0.207 OA
ATOM      5  O   UNL     1      -0.283   2.403  -0.905  1.00  0.00    -0.207 OA
BRANCH   3   6
ATOM      6  C   UNL     1      -1.426   0.115  -0.198  1.00  0.00     0.090 A 
ATOM      7  C   UNL     1      -1.092  -1.099  -0.821  1.00  0.00     0.022 A 
ATOM      8  C   UNL     1      -2.784   0.367   0.140  1.00  0.00     0.005 A 
ATOM      9  C   UNL     1      -2.056  -2.081  -1.044  1.00  0.00     0.002 A 
ATOM     10  C   UNL     1      -3.754  -0.646  -0.086  1.00  0.00     0.001 A 
ATOM     11  C   UNL     1      -3.219   1.596   0.675  1.00  0.00     0.030 A 
ATOM     12  C   UNL     1      -3.379  -1.864  -0.667  1.00  0.00     0.010 A 
ATOM     13  C   UNL     1      -5.092  -0.413   0.262  1.00  0.00     0.119 A 
ATOM     14  C   UNL     1      -4.565   1.778   1.001  1.00  0.00     0.111 A 
ATOM     15  N   UNL     1      -5.461   0.780   0.793  1.00  0.00    -0.264 NA
ENDBRANCH   3   6
ENDBRANCH   2   3
BRANCH   2  16
ATOM     16  C   UNL     1       1.684  -0.356   1.084  1.00  0.00     0.104 C 
BRANCH  16  17
ATOM     17  C   UNL     1       3.073  -1.018   1.061  1.00  0.00     0.032 CG0
ATOM     18  G   UNL     1       3.540  -1.471  -0.339  1.00  0.00     0.000 G0
ENDBRANCH  16  17
ENDBRANCH   2  16
ENDBRANCH   1   2
BRANCH   1  19
ATOM     19  C   UNL     1       3.777   0.954  -0.866  1.00  0.00     0.097 C 
BRANCH  19  20
ATOM     20  N   UNL     1       3.579  -0.415  -1.374  1.00  0.00    -0.315 NA
ATOM     21  H   UNL     1       2.722  -0.459  -1.974  1.00  0.00     0.122 HD
BRANCH  20  22
ATOM     22  C   UNL     1       3.540  -1.471  -0.339  1.00  0.00     0.082 CG0
ATOM     23  G   UNL     1       3.073  -1.018   1.061  1.00  0.00     0.000 G0
ENDBRANCH  20  22
ENDBRANCH  19  20
ENDBRANCH   1  19
TORSDOF 2
