REMARK SMILES C[C@@H]1CCN(C(=O)CC#N)C[C@@H]1N(C)c1ncnc2[nH]ccc12
REMARK SMILES IDX 1 1 2 2 3 3 4 4 5 5 11 6 12 7 13 8 14 9 15 10 16 11 23 12
REMARK SMILES IDX 17 13 19 14 22 15 18 16 20 17 21 18 6 20 7 21 8 22 9 23
REMARK SMILES IDX 10 24
REMARK H PARENT 20 19
REMARK Flexibility Score: inf
ROOT
ATOM      1  C   UNL     1      -1.206  -2.768   0.393  1.00  0.00     0.010 C 
ATOM      2  C   UNL     1       0.175  -2.168   0.106  1.00  0.00     0.012 C 
ATOM      3  C   UNL     1       0.693  -1.371   1.311  1.00  0.00     0.027 C 
ATOM      4  C   UNL     1       2.090  -0.814   1.037  1.00  0.00     0.120 C 
ATOM      5  N   UNL     1       2.123  -0.054  -0.221  1.00  0.00    -0.340 N 
ATOM      6  C   UNL     1       1.572  -0.671  -1.440  1.00  0.00     0.144 C 
ATOM      7  C   UNL     1       0.201  -1.341  -1.206  1.00  0.00     0.105 C 
ENDROOT
BRANCH   7   8
ATOM      8  N   UNL     1      -0.927  -0.386  -1.335  1.00  0.00    -0.354 N 
ATOM      9  C   UNL     1      -1.859  -0.567  -2.453  1.00  0.00     0.145 C 
BRANCH   8  10
ATOM     10  C   UNL     1      -1.127   0.724  -0.437  1.00  0.00     0.141 A 
ATOM     11  N   UNL     1      -0.129   1.629  -0.214  1.00  0.00    -0.219 NA
ATOM     12  C   UNL     1      -2.345   0.945   0.210  1.00  0.00     0.061 A 
ATOM     13  C   UNL     1      -0.296   2.698   0.624  1.00  0.00     0.226 A 
ATOM     14  C   UNL     1      -2.489   2.015   1.041  1.00  0.00     0.142 A 
ATOM     15  C   UNL     1      -3.545   0.262   0.221  1.00  0.00     0.033 A 
ATOM     16  N   UNL     1      -1.486   2.898   1.263  1.00  0.00    -0.218 NA
ATOM     17  N   UNL     1      -3.715   2.059   1.584  1.00  0.00    -0.346 N 
ATOM     18  C   UNL     1      -4.367   0.984   1.083  1.00  0.00     0.085 A 
ATOM     19  H   UNL     1      -4.088   2.769   2.252  1.00  0.00     0.167 HD
ENDBRANCH   8  10
ENDBRANCH   7   8
BRANCH   5  20
ATOM     20  C   UNL     1       3.006   1.083  -0.367  1.00  0.00     0.236 C 
ATOM     21  O   UNL     1       2.785   1.926  -1.280  1.00  0.00    -0.274 OA
BRANCH  20  22
ATOM     22  C   UNL     1       4.148   1.322   0.589  1.00  0.00     0.220 C 
BRANCH  22  23
ATOM     23  C   UNL     1       5.268   2.003  -0.073  1.00  0.00     0.072 C 
ATOM     24  N   UNL     1       6.152   2.539  -0.593  1.00  0.00    -0.198 NA
ENDBRANCH  22  23
ENDBRANCH  20  22
ENDBRANCH   5  20
TORSDOF 5
