REMARK SMILES N=C(N)NCCCCN
REMARK SMILES IDX 7 1 8 2 9 3 6 6 5 7 4 8 2 9 3 11 1 12
REMARK H PARENT 9 4 9 5 4 10 3 13 3 14 1 15
REMARK Flexibility Score: inf
ROOT
ATOM      1  C   UNL     1       1.795  -1.256   0.197  1.00  0.00     0.017 C 
ENDROOT
BRANCH   1   2
ATOM      2  C   UNL     1       2.651  -0.046  -0.208  1.00  0.00     0.077 C 
BRANCH   2   3
ATOM      3  N   UNL     1       2.608   0.993   0.817  1.00  0.00    -0.330 NA
ATOM      4  H   UNL     1       3.159   1.809   0.466  1.00  0.00     0.118 HD
ATOM      5  H   UNL     1       3.108   0.638   1.664  1.00  0.00     0.118 HD
ENDBRANCH   2   3
ENDBRANCH   1   2
BRANCH   1   6
ATOM      6  C   UNL     1       0.313  -0.916   0.427  1.00  0.00     0.023 C 
BRANCH   6   7
ATOM      7  C   UNL     1      -0.417  -0.537  -0.868  1.00  0.00     0.116 C 
BRANCH   7   8
ATOM      8  N   UNL     1      -1.852  -0.395  -0.622  1.00  0.00    -0.357 N 
ATOM      9  C   UNL     1      -2.425   0.740   0.045  1.00  0.00     0.185 C 
ATOM     10  H   UNL     1      -2.492  -1.133  -0.993  1.00  0.00     0.163 HD
ATOM     11  N   UNL     1      -3.836   0.789   0.269  1.00  0.00    -0.370 N 
ATOM     12  N   UNL     1      -1.672   1.720   0.433  1.00  0.00    -0.270 NA
ATOM     13  H   UNL     1      -4.275   1.607   0.748  1.00  0.00     0.159 HD
ATOM     14  H   UNL     1      -4.448   0.003  -0.042  1.00  0.00     0.159 HD
ATOM     15  H   UNL     1      -2.066   2.558   0.916  1.00  0.00     0.191 HD
ENDBRANCH   7   8
ENDBRANCH   6   7
ENDBRANCH   1   6
TORSDOF 5
