REMARK SMILES COC(=O)Nc1nc2cc(C(=O)c3cccs3)ccc2[nH]1
REMARK SMILES IDX 6 1 7 2 8 3 9 4 10 5 18 6 19 7 20 8 21 9 5 11 3 12 4 13 2 15
REMARK SMILES IDX 1 16 11 17 12 18 13 19 14 20 17 21 15 22 16 23
REMARK H PARENT 21 10 5 14
REMARK Flexibility Score: inf
ROOT
ATOM      1  C   UNL     1      -2.326   1.027   0.102  1.00  0.00     0.210 A 
ATOM      2  N   UNL     1      -1.427   0.008   0.039  1.00  0.00    -0.213 NA
ATOM      3  C   UNL     1      -0.318   0.623  -0.410  1.00  0.00     0.091 A 
ATOM      4  C   UNL     1       0.924   0.052  -0.671  1.00  0.00     0.043 A 
ATOM      5  C   UNL     1       1.959   0.897  -1.141  1.00  0.00     0.026 A 
ATOM      6  C   UNL     1       1.693   2.276  -1.358  1.00  0.00     0.014 A 
ATOM      7  C   UNL     1       0.423   2.816  -1.083  1.00  0.00     0.029 A 
ATOM      8  C   UNL     1      -0.556   1.950  -0.606  1.00  0.00     0.067 A 
ATOM      9  N   UNL     1      -1.826   2.225  -0.286  1.00  0.00    -0.324 N 
ATOM     10  H   UNL     1      -2.316   3.146  -0.329  1.00  0.00     0.170 HD
ENDROOT
BRANCH   1  11
ATOM     11  N   UNL     1      -3.685   0.864   0.533  1.00  0.00    -0.261 N 
ATOM     12  C   UNL     1      -4.251  -0.385   0.951  1.00  0.00     0.413 C 
ATOM     13  O   UNL     1      -3.556  -1.438   0.959  1.00  0.00    -0.224 OA
ATOM     14  H   UNL     1      -4.301   1.707   0.545  1.00  0.00     0.176 HD
BRANCH  12  15
ATOM     15  O   UNL     1      -5.590  -0.423   1.351  1.00  0.00    -0.453 OA
ATOM     16  C   UNL     1      -6.229  -1.619   1.780  1.00  0.00     0.284 C 
ENDBRANCH  12  15
ENDBRANCH   1  11
BRANCH   5  17
ATOM     17  C   UNL     1       3.298   0.351  -1.457  1.00  0.00     0.203 C 
ATOM     18  O   UNL     1       3.917   0.799  -2.460  1.00  0.00    -0.288 OA
BRANCH  17  19
ATOM     19  C   UNL     1       3.945  -0.684  -0.626  1.00  0.00     0.075 A 
ATOM     20  C   UNL     1       5.058  -1.433  -0.993  1.00  0.00     0.024 A 
ATOM     21  S   UNL     1       3.541  -1.091   0.959  1.00  0.00    -0.140 S 
ATOM     22  C   UNL     1       5.502  -2.302   0.012  1.00  0.00     0.012 A 
ATOM     23  C   UNL     1       4.753  -2.234   1.179  1.00  0.00     0.065 A 
ENDBRANCH  17  19
ENDBRANCH   5  17
TORSDOF 4
