REMARK SMILES C[C@@H](Oc1cc(-c2cnn(C3CCNCC3)c2)cnc1N)c1c(Cl)ccc(F)c1Cl
REMARK SMILES IDX 4 1 5 2 6 3 18 4 19 5 20 6 3 7 2 8 1 9 22 10 23 11 29 12
REMARK SMILES IDX 24 13 25 14 27 15 30 16 26 17 28 18 21 19 7 22 17 23 8 24
REMARK SMILES IDX 10 25 9 26 11 27 12 28 16 29 13 30 15 31 14 32
REMARK H PARENT 21 20 21 21 14 33
REMARK Flexibility Score: inf
ROOT
ATOM      1  C   UNL     1      -2.543   2.004  -1.125  1.00  0.00     0.162 A 
ATOM      2  C   UNL     1      -1.315   1.400  -0.802  1.00  0.00     0.061 A 
ATOM      3  C   UNL     1      -0.215   2.178  -0.402  1.00  0.00     0.007 A 
ATOM      4  C   UNL     1      -0.376   3.571  -0.347  1.00  0.00     0.122 A 
ATOM      5  N   UNL     1      -1.567   4.139  -0.670  1.00  0.00    -0.235 NA
ATOM      6  C   UNL     1      -2.642   3.402  -1.054  1.00  0.00     0.166 A 
ENDROOT
BRANCH   1   7
ATOM      7  O   UNL     1      -3.671   1.257  -1.510  1.00  0.00    -0.482 OA
BRANCH   7   8
ATOM      8  C   UNL     1      -3.749  -0.171  -1.538  1.00  0.00     0.203 C 
ATOM      9  C   UNL     1      -5.050  -0.598  -2.215  1.00  0.00     0.058 C 
BRANCH   8  10
ATOM     10  C   UNL     1      -3.657  -0.764  -0.134  1.00  0.00     0.032 A 
ATOM     11  C   UNL     1      -4.384  -0.203   0.952  1.00  0.00     0.049 A 
ATOM     12  C   UNL     1      -2.856  -1.911   0.110  1.00  0.00     0.085 A 
ATOM     13  Cl  UNL     1      -5.463   1.179   0.770  1.00  0.00    -0.084 Cl
ATOM     14  C   UNL     1      -4.270  -0.753   2.233  1.00  0.00     0.024 A 
ATOM     15  C   UNL     1      -2.756  -2.440   1.404  1.00  0.00     0.142 A 
ATOM     16  Cl  UNL     1      -1.960  -2.726  -1.174  1.00  0.00    -0.081 Cl
ATOM     17  C   UNL     1      -3.456  -1.859   2.459  1.00  0.00     0.042 A 
ATOM     18  F   UNL     1      -1.978  -3.526   1.642  1.00  0.00    -0.205 F 
ENDBRANCH   8  10
ENDBRANCH   7   8
ENDBRANCH   1   7
BRANCH   6  19
ATOM     19  N   UNL     1      -3.868   4.068  -1.369  1.00  0.00    -0.381 N 
ATOM     20  H   UNL     1      -4.713   3.541  -1.683  1.00  0.00     0.158 HD
ATOM     21  H   UNL     1      -3.933   5.106  -1.287  1.00  0.00     0.158 HD
ENDBRANCH   6  19
BRANCH   3  22
ATOM     22  C   UNL     1       1.081   1.541  -0.044  1.00  0.00     0.021 A 
ATOM     23  C   UNL     1       1.385   0.189  -0.024  1.00  0.00     0.117 A 
ATOM     24  C   UNL     1       2.259   2.168   0.338  1.00  0.00     0.143 A 
ATOM     25  N   UNL     1       2.667   0.050   0.360  1.00  0.00    -0.269 N 
ATOM     26  N   UNL     1       3.207   1.241   0.568  1.00  0.00    -0.181 NA
BRANCH  25  27
ATOM     27  C   UNL     1       3.403  -1.216   0.440  1.00  0.00     0.110 C 
ATOM     28  C   UNL     1       4.227  -1.295   1.746  1.00  0.00     0.042 C 
ATOM     29  C   UNL     1       4.281  -1.389  -0.817  1.00  0.00     0.042 C 
ATOM     30  C   UNL     1       5.691  -0.902   1.509  1.00  0.00     0.083 C 
ATOM     31  C   UNL     1       5.470  -2.314  -0.528  1.00  0.00     0.083 C 
ATOM     32  N   UNL     1       6.356  -1.787   0.531  1.00  0.00    -0.317 NA
ATOM     33  H   UNL     1       7.129  -1.244   0.080  1.00  0.00     0.122 HD
ENDBRANCH  25  27
ENDBRANCH   3  22
TORSDOF 6
