REMARK SMILES CO[C@@H]1[C@H](OC(=O)NC(=O)CCl)CC[C@]2(CO2)[C@H]1[C@@]1(C)O[C@@H]1CC=C(C)C
REMARK SMILES IDX 18 1 3 2 4 3 13 4 14 5 15 6 16 7 17 8 19 9 22 10 21 11 20 12
REMARK SMILES IDX 23 13 24 14 25 15 26 16 27 17 2 18 1 19 5 20 6 21 7 22 8 23
REMARK SMILES IDX 9 24 10 26 11 27 12 28
REMARK H PARENT 8 25
REMARK Flexibility Score: inf
ROOT
ATOM      1  C   UNL     1      -0.155  -1.029   0.581  1.00  0.00     0.091 C 
ATOM      2  C   UNL     1       1.147  -0.782  -0.252  1.00  0.00     0.167 C 
ATOM      3  C   UNL     1       2.435  -0.913   0.584  1.00  0.00     0.208 C 
ATOM      4  C   UNL     1       2.485  -2.282   1.263  1.00  0.00     0.051 C 
ATOM      5  C   UNL     1       1.415  -2.394   2.343  1.00  0.00     0.042 C 
ATOM      6  C   UNL     1       0.045  -1.853   1.895  1.00  0.00     0.100 C 
ATOM      7  C   UNL     1      -1.154  -2.559   2.437  1.00  0.00     0.197 C 
ATOM      8  O   UNL     1      -0.690  -1.352   2.992  1.00  0.00    -0.369 OA
ENDROOT
BRANCH   1   9
ATOM      9  C   UNL     1      -0.926   0.302   0.819  1.00  0.00     0.101 C 
ATOM     10  C   UNL     1      -2.400   0.290   0.567  1.00  0.00     0.155 C 
ATOM     11  O   UNL     1      -1.484   0.808  -0.373  1.00  0.00    -0.365 OA
ATOM     12  C   UNL     1      -0.303   1.420   1.675  1.00  0.00     0.046 C 
BRANCH  10  13
ATOM     13  C   UNL     1      -3.269   1.399   1.178  1.00  0.00     0.062 C 
BRANCH  13  14
ATOM     14  C   UNL     1      -4.736   1.107   0.995  1.00  0.00    -0.026 C 
ATOM     15  C   UNL     1      -5.384   1.173  -0.188  1.00  0.00    -0.080 C 
ATOM     16  C   UNL     1      -4.672   1.532  -1.472  1.00  0.00     0.039 C 
ATOM     17  C   UNL     1      -6.864   0.889  -0.216  1.00  0.00     0.039 C 
ENDBRANCH  13  14
ENDBRANCH  10  13
ENDBRANCH   1   9
BRANCH   2  18
ATOM     18  O   UNL     1       1.215  -1.715  -1.325  1.00  0.00    -0.377 OA
ATOM     19  C   UNL     1       0.652  -1.170  -2.504  1.00  0.00     0.195 C 
ENDBRANCH   2  18
BRANCH   3  20
ATOM     20  O   UNL     1       3.582  -0.769  -0.255  1.00  0.00    -0.443 OA
BRANCH  20  21
ATOM     21  C   UNL     1       4.048   0.465  -0.725  1.00  0.00     0.414 C 
ATOM     22  O   UNL     1       3.499   1.538  -0.347  1.00  0.00    -0.224 OA
ATOM     23  N   UNL     1       5.159   0.493  -1.632  1.00  0.00    -0.260 N 
ATOM     24  C   UNL     1       5.855   1.692  -2.012  1.00  0.00     0.244 C 
ATOM     25  H   UNL     1       5.506  -0.420  -2.005  1.00  0.00     0.176 HD
ATOM     26  O   UNL     1       5.562   2.798  -1.485  1.00  0.00    -0.273 OA
BRANCH  24  27
ATOM     27  C   UNL     1       6.956   1.624  -3.025  1.00  0.00     0.209 C 
ATOM     28  Cl  UNL     1       8.394   0.862  -2.296  1.00  0.00    -0.116 Cl
ENDBRANCH  24  27
ENDBRANCH  20  21
ENDBRANCH   3  20
TORSDOF 7
