REMARK SMILES O=C(NC1CCN(CCc2c[nH]c3ccccc23)CC1)c1ccccc1
REMARK SMILES IDX 4 1 5 2 6 3 7 4 19 5 20 6 3 7 1 8 2 9 21 11 22 12 26 13
REMARK SMILES IDX 23 14 25 15 24 16 8 17 9 18 10 19 11 20 18 21 12 22 13 23
REMARK SMILES IDX 17 24 14 26 16 27 15 28
REMARK H PARENT 3 10 12 25
REMARK Flexibility Score: inf
ROOT
ATOM      1  C   UNL     1       2.016   1.561   1.660  1.00  0.00     0.084 C 
ATOM      2  C   UNL     1       1.485   0.935   2.964  1.00  0.00     0.040 C 
ATOM      3  C   UNL     1       0.503  -0.229   2.699  1.00  0.00     0.086 C 
ATOM      4  N   UNL     1      -0.047  -0.191   1.326  1.00  0.00    -0.303 NA
ATOM      5  C   UNL     1      -0.418   1.171   0.911  1.00  0.00     0.086 C 
ATOM      6  C   UNL     1       0.841   2.049   0.777  1.00  0.00     0.040 C 
ENDROOT
BRANCH   1   7
ATOM      7  N   UNL     1       2.851   0.600   0.925  1.00  0.00    -0.349 N 
ATOM      8  O   UNL     1       3.927   2.226  -0.358  1.00  0.00    -0.269 OA
ATOM      9  C   UNL     1       3.699   1.000  -0.164  1.00  0.00     0.251 C 
ATOM     10  H   UNL     1       2.898  -0.391   1.253  1.00  0.00     0.164 HD
BRANCH   9  11
ATOM     11  C   UNL     1       4.321  -0.006  -1.056  1.00  0.00     0.039 A 
ATOM     12  C   UNL     1       3.748  -1.283  -1.219  1.00  0.00     0.014 A 
ATOM     13  C   UNL     1       5.485   0.314  -1.779  1.00  0.00     0.014 A 
ATOM     14  C   UNL     1       4.340  -2.220  -2.072  1.00  0.00     0.001 A 
ATOM     15  C   UNL     1       6.073  -0.627  -2.629  1.00  0.00     0.001 A 
ATOM     16  C   UNL     1       5.503  -1.894  -2.774  1.00  0.00     0.000 A 
ENDBRANCH   9  11
ENDBRANCH   1   7
BRANCH   4  17
ATOM     17  C   UNL     1      -1.101  -1.204   1.093  1.00  0.00     0.089 C 
BRANCH  17  18
ATOM     18  C   UNL     1      -2.479  -0.873   1.717  1.00  0.00     0.053 C 
BRANCH  18  19
ATOM     19  C   UNL     1      -3.379  -0.136   0.764  1.00  0.00    -0.021 A 
ATOM     20  C   UNL     1      -3.824   1.178   0.885  1.00  0.00     0.087 A 
ATOM     21  C   UNL     1      -3.958  -0.619  -0.394  1.00  0.00     0.003 A 
ATOM     22  N   UNL     1      -4.629   1.503  -0.153  1.00  0.00    -0.361 N 
ATOM     23  C   UNL     1      -4.703   0.404  -0.923  1.00  0.00     0.046 A 
ATOM     24  C   UNL     1      -3.892  -1.872  -1.005  1.00  0.00     0.010 A 
ATOM     25  H   UNL     1      -5.101   2.420  -0.315  1.00  0.00     0.166 HD
ATOM     26  C   UNL     1      -5.427   0.248  -2.104  1.00  0.00     0.026 A 
ATOM     27  C   UNL     1      -4.612  -2.058  -2.199  1.00  0.00     0.001 A 
ATOM     28  C   UNL     1      -5.375  -1.003  -2.747  1.00  0.00     0.002 A 
ENDBRANCH  18  19
ENDBRANCH  17  18
ENDBRANCH   4  17
TORSDOF 5
