REMARK SMILES CCCNS(=O)(=O)Nc1ncnc(OCCOc2ncc(Br)cn2)c1-c1ccc(Br)cc1
REMARK SMILES IDX 9 1 25 2 13 3 12 4 11 5 10 6 8 7 5 9 6 10 7 11 4 12 3 14
REMARK SMILES IDX 2 15 1 16 26 17 27 18 32 19 28 20 31 21 29 22 30 23 14 24
REMARK SMILES IDX 15 25 16 26 17 27 18 28 19 29 24 30 20 31 23 32 21 33 22 34
REMARK H PARENT 8 8 4 13
REMARK Flexibility Score: inf
ROOT
ATOM      1  C   UNL     1      -1.212  -0.189   0.801  1.00  0.00     0.155 A 
ATOM      2  C   UNL     1      -0.176   0.769   0.731  1.00  0.00     0.087 A 
ATOM      3  C   UNL     1       1.070   0.439   1.294  1.00  0.00     0.226 A 
ATOM      4  N   UNL     1       1.242  -0.773   1.889  1.00  0.00    -0.201 NA
ATOM      5  C   UNL     1       0.233  -1.675   1.952  1.00  0.00     0.228 A 
ATOM      6  N   UNL     1      -0.975  -1.381   1.412  1.00  0.00    -0.218 NA
ENDROOT
BRANCH   1   7
ATOM      7  N   UNL     1      -2.496   0.053   0.202  1.00  0.00    -0.254 N 
ATOM      8  H   UNL     1      -2.640   0.855  -0.450  1.00  0.00     0.183 HD
BRANCH   7   9
ATOM      9  S   UNL     1      -3.849  -0.989   0.490  1.00  0.00     0.300 S 
ATOM     10  O   UNL     1      -4.100  -1.070   1.970  1.00  0.00    -0.189 OA
ATOM     11  O   UNL     1      -3.541  -2.356  -0.052  1.00  0.00    -0.189 OA
BRANCH   9  12
ATOM     12  N   UNL     1      -5.240  -0.331  -0.326  1.00  0.00    -0.198 NA
ATOM     13  H   UNL     1      -5.277   0.683  -0.075  1.00  0.00     0.142 HD
BRANCH  12  14
ATOM     14  C   UNL     1      -6.491  -0.948   0.142  1.00  0.00     0.100 C 
BRANCH  14  15
ATOM     15  C   UNL     1      -6.738  -2.317  -0.506  1.00  0.00     0.013 C 
ATOM     16  C   UNL     1      -6.703  -2.254  -2.032  1.00  0.00     0.005 C 
ENDBRANCH  14  15
ENDBRANCH  12  14
ENDBRANCH   9  12
ENDBRANCH   7   9
ENDBRANCH   1   7
BRANCH   2  17
ATOM     17  C   UNL     1      -0.378   2.096   0.108  1.00  0.00    -0.009 A 
ATOM     18  C   UNL     1       0.398   2.484  -0.998  1.00  0.00     0.010 A 
ATOM     19  C   UNL     1      -1.332   2.987   0.627  1.00  0.00     0.010 A 
ATOM     20  C   UNL     1       0.212   3.741  -1.583  1.00  0.00     0.016 A 
ATOM     21  C   UNL     1      -1.517   4.242   0.038  1.00  0.00     0.016 A 
ATOM     22  C   UNL     1      -0.746   4.621  -1.067  1.00  0.00     0.018 A 
ATOM     23  Br  UNL     1      -1.001   6.335  -1.869  1.00  0.00    -0.051 Br
ENDBRANCH   2  17
BRANCH   3  24
ATOM     24  O   UNL     1       2.122   1.365   1.258  1.00  0.00    -0.473 OA
BRANCH  24  25
ATOM     25  C   UNL     1       3.435   1.089   1.743  1.00  0.00     0.273 C 
BRANCH  25  26
ATOM     26  C   UNL     1       4.204   0.229   0.745  1.00  0.00     0.274 C 
BRANCH  26  27
ATOM     27  O   UNL     1       5.482  -0.094   1.284  1.00  0.00    -0.460 OA
BRANCH  27  28
ATOM     28  C   UNL     1       6.428  -0.850   0.588  1.00  0.00     0.316 A 
ATOM     29  N   UNL     1       6.198  -1.251  -0.694  1.00  0.00    -0.203 NA
ATOM     30  N   UNL     1       7.594  -1.188   1.201  1.00  0.00    -0.203 NA
ATOM     31  C   UNL     1       7.118  -1.983  -1.374  1.00  0.00     0.134 A 
ATOM     32  C   UNL     1       8.539  -1.919   0.555  1.00  0.00     0.134 A 
ATOM     33  C   UNL     1       8.319  -2.335  -0.758  1.00  0.00     0.054 A 
ATOM     34  Br  UNL     1       9.629  -3.370  -1.688  1.00  0.00    -0.047 Br
ENDBRANCH  27  28
ENDBRANCH  26  27
ENDBRANCH  25  26
ENDBRANCH  24  25
ENDBRANCH   3  24
TORSDOF 11
