REMARK SMILES C[C@@H]1C[C@H]2[C@@H]3C[C@H](F)C4=CC(=O)C=C[C@]4(C)[C@@]3(F)[C@@H](O)C[C@]2(C)[C@@]1(OC(=O)c1ccco1)C(=O)SCF
REMARK SMILES IDX 4 1 3 2 2 3 1 4 24 5 22 6 23 7 21 8 19 9 17 10 18 11 5 12
REMARK SMILES IDX 6 13 7 14 8 15 9 16 10 17 11 18 12 19 13 20 14 21 15 22
REMARK SMILES IDX 16 23 25 24 26 25 27 26 28 27 29 28 32 29 30 30 31 31 33 32
REMARK SMILES IDX 34 33 35 34 36 35 37 36 20 37
REMARK H PARENT 20 38
REMARK Flexibility Score: inf
ROOT
ATOM      1  C   UNL     1      -0.174  -1.015  -0.101  1.00  0.00     0.006 C 
ATOM      2  C   UNL     1       0.352  -2.397  -0.451  1.00  0.00     0.012 C 
ATOM      3  C   UNL     1       1.820  -2.390   0.037  1.00  0.00     0.040 C 
ATOM      4  C   UNL     1       2.780  -2.566  -1.153  1.00  0.00     0.012 C 
ATOM      5  C   UNL     1       2.038  -1.059   0.857  1.00  0.00     0.189 C 
ATOM      6  C   UNL     1       0.539  -0.652   1.213  1.00  0.00     0.022 C 
ATOM      7  C   UNL     1       0.009  -1.501   2.420  1.00  0.00     0.016 C 
ATOM      8  C   UNL     1       0.249   0.853   1.483  1.00  0.00     0.047 C 
ATOM      9  C   UNL     1      -1.266   1.203   1.516  1.00  0.00     0.154 C 
ATOM     10  C   UNL     1      -2.023   0.707   0.231  1.00  0.00     0.152 C 
ATOM     11  F   UNL     1      -1.489   1.444  -0.823  1.00  0.00    -0.239 F 
ATOM     12  C   UNL     1      -1.712  -0.807  -0.071  1.00  0.00     0.037 C 
ATOM     13  C   UNL     1      -2.340  -1.237  -1.416  1.00  0.00     0.049 C 
ATOM     14  C   UNL     1      -3.849  -0.997  -1.434  1.00  0.00     0.194 C 
ATOM     15  F   UNL     1      -4.346  -1.371  -2.674  1.00  0.00    -0.243 F 
ATOM     16  C   UNL     1      -4.137   0.453  -1.110  1.00  0.00    -0.020 C 
ATOM     17  C   UNL     1      -4.847   1.213  -1.963  1.00  0.00     0.055 C 
ATOM     18  C   UNL     1      -5.074   2.633  -1.699  1.00  0.00     0.178 C 
ATOM     19  O   UNL     1      -5.741   3.329  -2.508  1.00  0.00    -0.290 OA
ATOM     20  C   UNL     1      -4.505   3.244  -0.502  1.00  0.00     0.048 C 
ATOM     21  C   UNL     1      -3.808   2.512   0.366  1.00  0.00    -0.009 C 
ATOM     22  C   UNL     1      -3.580   1.006   0.217  1.00  0.00     0.047 C 
ATOM     23  C   UNL     1      -4.366   0.331   1.370  1.00  0.00     0.024 C 
ENDROOT
BRANCH   5  24
ATOM     24  O   UNL     1       2.638  -0.100  -0.045  1.00  0.00    -0.443 OA
BRANCH  24  25
ATOM     25  C   UNL     1       3.119   1.192   0.229  1.00  0.00     0.375 C 
ATOM     26  O   UNL     1       3.063   1.685   1.387  1.00  0.00    -0.242 OA
BRANCH  25  27
ATOM     27  C   UNL     1       3.684   1.987  -0.863  1.00  0.00     0.211 A 
ATOM     28  C   UNL     1       3.765   1.598  -2.185  1.00  0.00     0.058 A 
ATOM     29  O   UNL     1       4.188   3.191  -0.715  1.00  0.00    -0.457 OA
ATOM     30  C   UNL     1       4.357   2.652  -2.845  1.00  0.00     0.043 A 
ATOM     31  C   UNL     1       4.599   3.617  -1.887  1.00  0.00     0.196 A 
ENDBRANCH  25  27
ENDBRANCH  24  25
ENDBRANCH   5  24
BRANCH   5  32
ATOM     32  C   UNL     1       2.975  -1.356   2.057  1.00  0.00     0.236 C 
ATOM     33  O   UNL     1       2.632  -2.149   2.919  1.00  0.00    -0.282 OA
BRANCH  32  34
ATOM     34  S   UNL     1       4.625  -0.640   2.251  1.00  0.00    -0.050 SA
BRANCH  34  35
ATOM     35  C   UNL     1       5.565  -2.121   1.761  1.00  0.00     0.292 C 
ATOM     36  F   UNL     1       5.184  -3.216   2.517  1.00  0.00    -0.239 F 
ENDBRANCH  34  35
ENDBRANCH  32  34
ENDBRANCH   5  32
BRANCH   9  37
ATOM     37  O   UNL     1      -1.860   0.719   2.691  1.00  0.00    -0.390 OA
ATOM     38  H   UNL     1      -1.515   1.272   3.440  1.00  0.00     0.211 HD
ENDBRANCH   9  37
TORSDOF 7
