REMARK SMILES CC[N+](CC)(CC)CC
REMARK SMILES IDX 3 1 2 2 1 3 4 4 5 5 6 6 7 7 8 8 9 9
REMARK H PARENT
REMARK Flexibility Score: inf
ROOT
ATOM      1  N   UNL     1       0.171   0.135   0.111  1.00  0.00    -0.325 N 
ENDROOT
BRANCH   1   2
ATOM      2  C   UNL     1      -0.850   0.144   1.218  1.00  0.00     0.260 C 
ATOM      3  C   UNL     1      -1.925   1.245   1.114  1.00  0.00     0.071 C 
ENDBRANCH   1   2
BRANCH   1   4
ATOM      4  C   UNL     1       1.284  -0.811   0.481  1.00  0.00     0.260 C 
ATOM      5  C   UNL     1       0.901  -2.288   0.668  1.00  0.00     0.071 C 
ENDBRANCH   1   4
BRANCH   1   6
ATOM      6  C   UNL     1      -0.417  -0.219  -1.234  1.00  0.00     0.260 C 
ATOM      7  C   UNL     1      -1.606  -1.203  -1.246  1.00  0.00     0.071 C 
ENDBRANCH   1   6
BRANCH   1   8
ATOM      8  C   UNL     1       0.768   1.518   0.034  1.00  0.00     0.260 C 
ATOM      9  C   UNL     1       1.946   1.692  -0.946  1.00  0.00     0.071 C 
ENDBRANCH   1   8
TORSDOF 4
