REMARK SMILES NS(=O)(=O)c1ccc(N2CCCCS2(=O)=O)cc1
REMARK SMILES IDX 5 1 6 2 7 3 8 4 17 5 18 6 2 7 3 8 4 9 1 10 9 13 10 14 14 15
REMARK SMILES IDX 11 16 13 17 15 18 16 19 12 20
REMARK H PARENT 1 11 1 12
REMARK Flexibility Score: inf
ROOT
ATOM      1  C   UNL     1       2.982  -0.252  -0.677  1.00  0.00     0.082 A 
ATOM      2  C   UNL     1       2.328   0.963  -0.922  1.00  0.00     0.024 A 
ATOM      3  C   UNL     1       0.956   1.084  -0.686  1.00  0.00     0.028 A 
ATOM      4  C   UNL     1       0.221  -0.011  -0.202  1.00  0.00     0.052 A 
ATOM      5  C   UNL     1       0.881  -1.221   0.057  1.00  0.00     0.028 A 
ATOM      6  C   UNL     1       2.254  -1.341  -0.179  1.00  0.00     0.024 A 
ENDROOT
BRANCH   1   7
ATOM      7  S   UNL     1       4.714  -0.398  -0.958  1.00  0.00     0.238 S 
ATOM      8  O   UNL     1       5.125   0.508  -2.084  1.00  0.00    -0.207 OA
ATOM      9  O   UNL     1       5.051  -1.814  -1.332  1.00  0.00    -0.207 OA
BRANCH   7  10
ATOM     10  N   UNL     1       5.573   0.039   0.477  1.00  0.00    -0.225 NA
ATOM     11  H   UNL     1       5.228  -0.584   1.241  1.00  0.00     0.137 HD
ATOM     12  H   UNL     1       5.279   1.010   0.725  1.00  0.00     0.137 HD
ENDBRANCH   7  10
ENDBRANCH   1   7
BRANCH   4  13
ATOM     13  N   UNL     1      -1.188   0.110   0.046  1.00  0.00    -0.270 N 
ATOM     14  C   UNL     1      -1.717   1.266   0.776  1.00  0.00     0.135 C 
ATOM     15  S   UNL     1      -2.305  -0.846  -0.875  1.00  0.00     0.235 S 
ATOM     16  C   UNL     1      -2.951   0.882   1.605  1.00  0.00     0.024 C 
ATOM     17  C   UNL     1      -3.813  -0.950   0.065  1.00  0.00     0.160 C 
ATOM     18  O   UNL     1      -1.767  -2.231  -1.099  1.00  0.00    -0.206 OA
ATOM     19  O   UNL     1      -2.567  -0.184  -2.198  1.00  0.00    -0.206 OA
ATOM     20  C   UNL     1      -4.114   0.397   0.725  1.00  0.00     0.020 C 
ENDBRANCH   4  13
TORSDOF 3
