REMARK SMILES O=c1oc2c(O)c(O)cc3c(=O)oc4c(O)c(O)cc1c4c23
REMARK SMILES IDX 17 1 15 2 14 3 21 4 20 5 19 6 2 7 1 8 3 9 4 10 22 11 10 12
REMARK SMILES IDX 9 13 7 14 5 15 11 16 12 17 13 18 18 19 16 21 6 23 8 25
REMARK H PARENT 18 20 16 22 6 24 8 26
REMARK Flexibility Score: inf
ROOT
ATOM      1  C   UNL     1      -3.413  -0.394   0.350  1.00  0.00     0.162 A 
ATOM      2  C   UNL     1      -2.885   0.913   0.348  1.00  0.00     0.202 A 
ATOM      3  C   UNL     1      -1.500   1.105   0.252  1.00  0.00     0.185 A 
ATOM      4  C   UNL     1      -0.651  -0.011   0.159  1.00  0.00     0.048 A 
ATOM      5  C   UNL     1      -1.165  -1.317   0.160  1.00  0.00     0.076 A 
ATOM      6  C   UNL     1      -2.554  -1.503   0.256  1.00  0.00     0.066 A 
ATOM      7  C   UNL     1      -0.252  -2.387   0.062  1.00  0.00     0.344 A 
ATOM      8  O   UNL     1      -0.659  -3.580   0.059  1.00  0.00    -0.246 OA
ATOM      9  O   UNL     1       1.057  -2.149  -0.027  1.00  0.00    -0.418 OA
ATOM     10  C   UNL     1       1.574  -0.920  -0.030  1.00  0.00     0.185 A 
ATOM     11  C   UNL     1       0.724   0.195   0.064  1.00  0.00     0.048 A 
ATOM     12  C   UNL     1       1.237   1.502   0.063  1.00  0.00     0.076 A 
ATOM     13  C   UNL     1       2.626   1.689  -0.034  1.00  0.00     0.066 A 
ATOM     14  C   UNL     1       3.485   0.585  -0.128  1.00  0.00     0.162 A 
ATOM     15  C   UNL     1       2.963  -0.724  -0.127  1.00  0.00     0.202 A 
ATOM     16  C   UNL     1       0.324   2.572   0.160  1.00  0.00     0.344 A 
ATOM     17  O   UNL     1       0.731   3.765   0.164  1.00  0.00    -0.246 OA
ATOM     18  O   UNL     1      -0.985   2.334   0.249  1.00  0.00    -0.418 OA
ENDROOT
BRANCH   1  19
ATOM     19  O   UNL     1      -4.791  -0.586   0.446  1.00  0.00    -0.504 OA
ATOM     20  H   UNL     1      -5.198  -1.514   0.450  1.00  0.00     0.293 HD
ENDBRANCH   1  19
BRANCH   2  21
ATOM     21  O   UNL     1      -3.723   2.025   0.441  1.00  0.00    -0.502 OA
ATOM     22  H   UNL     1      -4.729   1.937   0.513  1.00  0.00     0.293 HD
ENDBRANCH   2  21
BRANCH  15  23
ATOM     23  O   UNL     1       3.831  -1.813  -0.221  1.00  0.00    -0.502 OA
ATOM     24  H   UNL     1       3.497  -2.770  -0.223  1.00  0.00     0.293 HD
ENDBRANCH  15  23
BRANCH  14  25
ATOM     25  O   UNL     1       4.859   0.809  -0.222  1.00  0.00    -0.504 OA
ATOM     26  H   UNL     1       5.525   0.050  -0.293  1.00  0.00     0.293 HD
ENDBRANCH  14  25
TORSDOF 4
