REMARK SMILES CCC(=O)NS(=O)(=O)c1ccc(-c2c(-c3ccccc3)noc2C)cc1
REMARK SMILES IDX 9 1 10 2 11 3 12 4 25 5 26 6 6 7 7 8 8 9 5 10 3 11 4 12 2 14
REMARK SMILES IDX 1 15 13 16 23 17 14 18 24 19 22 20 21 21 15 22 16 23 20 24
REMARK SMILES IDX 17 25 19 26 18 27
REMARK H PARENT 5 13
REMARK Flexibility Score: inf
ROOT
ATOM      1  C   UNL     1       1.383   0.240  -1.046  1.00  0.00     0.087 A 
ATOM      2  C   UNL     1       0.514   0.932  -0.194  1.00  0.00     0.023 A 
ATOM      3  C   UNL     1      -0.666   0.330   0.250  1.00  0.00     0.010 A 
ATOM      4  C   UNL     1      -0.992  -0.974  -0.155  1.00  0.00    -0.012 A 
ATOM      5  C   UNL     1      -0.116  -1.669  -1.004  1.00  0.00     0.010 A 
ATOM      6  C   UNL     1       1.065  -1.065  -1.447  1.00  0.00     0.023 A 
ENDROOT
BRANCH   1   7
ATOM      7  S   UNL     1       2.871   1.011  -1.584  1.00  0.00     0.264 S 
ATOM      8  O   UNL     1       2.530   2.296  -2.284  1.00  0.00    -0.201 OA
ATOM      9  O   UNL     1       3.618   0.124  -2.540  1.00  0.00    -0.201 OA
BRANCH   7  10
ATOM     10  N   UNL     1       3.874   1.349  -0.213  1.00  0.00    -0.249 N 
ATOM     11  C   UNL     1       4.361   0.306   0.638  1.00  0.00     0.233 C 
ATOM     12  O   UNL     1       4.103  -0.900   0.379  1.00  0.00    -0.274 OA
ATOM     13  H   UNL     1       4.112   2.343  -0.003  1.00  0.00     0.183 HD
BRANCH  11  14
ATOM     14  C   UNL     1       5.219   0.641   1.820  1.00  0.00     0.097 C 
ATOM     15  C   UNL     1       6.667   0.844   1.392  1.00  0.00     0.014 C 
ENDBRANCH  11  14
ENDBRANCH   7  10
ENDBRANCH   1   7
BRANCH   4  16
ATOM     16  C   UNL     1      -2.242  -1.609   0.312  1.00  0.00     0.052 A 
ATOM     17  C   UNL     1      -2.378  -2.843   0.924  1.00  0.00     0.142 A 
ATOM     18  C   UNL     1      -3.521  -1.067   0.373  1.00  0.00     0.121 A 
ATOM     19  C   UNL     1      -1.313  -3.863   1.160  1.00  0.00     0.091 C 
ATOM     20  O   UNL     1      -3.629  -2.993   1.291  1.00  0.00    -0.360 OA
ATOM     21  N   UNL     1      -4.341  -1.948   0.981  1.00  0.00    -0.079 NA
BRANCH  18  22
ATOM     22  C   UNL     1      -3.985   0.233  -0.157  1.00  0.00     0.004 A 
ATOM     23  C   UNL     1      -3.453   0.769  -1.344  1.00  0.00     0.010 A 
ATOM     24  C   UNL     1      -5.008   0.931   0.509  1.00  0.00     0.010 A 
ATOM     25  C   UNL     1      -3.912   1.995  -1.834  1.00  0.00     0.001 A 
ATOM     26  C   UNL     1      -5.465   2.157   0.015  1.00  0.00     0.001 A 
ATOM     27  C   UNL     1      -4.914   2.691  -1.153  1.00  0.00     0.000 A 
ENDBRANCH  18  22
ENDBRANCH   4  16
TORSDOF 5
