REMARK SMILES CCOC(=O)[C@H](CCc1ccccc1)N[C@H]1CS[C@H](c2cccs2)CN(CC(=O)O)C1=O
REMARK SMILES IDX 16 1 15 2 6 4 4 5 5 6 3 7 2 8 1 9 7 10 8 11 9 12 10 13 14 14
REMARK SMILES IDX 11 15 13 16 12 17 17 18 18 19 19 20 20 22 21 23 24 24 22 25
REMARK SMILES IDX 23 26 31 27 32 28 26 29 25 30 27 32 28 33 29 34 30 35
REMARK H PARENT 15 3 30 36
REMARK Flexibility Score: 90.00
ROOT
ATOM      1  C   UNL     1       0.742   1.625   0.861  1.00  0.00     0.154 C 
ENDROOT
BRANCH   1   2
ATOM      2  N   UNL     1      -0.485   0.893   1.234  1.00  0.00    -0.293 NA
ATOM      3  H   UNL     1      -0.764   1.145   2.212  1.00  0.00     0.124 HD
BRANCH   2   4
ATOM      4  C   UNL     1      -1.622   1.157   0.327  1.00  0.00     0.165 C 
BRANCH   4   5
ATOM      5  C   UNL     1      -2.249   2.499   0.611  1.00  0.00     0.323 C 
ATOM      6  O   UNL     1      -2.761   2.734   1.742  1.00  0.00    -0.250 OA
BRANCH   5   7
ATOM      7  O   UNL     1      -2.237   3.482  -0.388  1.00  0.00    -0.465 OA
BRANCH   7   8
ATOM      8  C   UNL     1      -2.840   4.764  -0.233  1.00  0.00     0.229 C 
ATOM      9  C   UNL     1      -4.358   4.662  -0.331  1.00  0.00     0.049 C 
ENDBRANCH   7   8
ENDBRANCH   5   7
ENDBRANCH   4   5
BRANCH   4  10
ATOM     10  C   UNL     1      -2.670   0.040   0.466  1.00  0.00     0.036 C 
BRANCH  10  11
ATOM     11  C   UNL     1      -2.104  -1.319   0.028  1.00  0.00     0.038 C 
BRANCH  11  12
ATOM     12  C   UNL     1      -3.166  -2.384   0.106  1.00  0.00    -0.048 A 
ATOM     13  C   UNL     1      -3.951  -2.687  -1.020  1.00  0.00     0.004 A 
ATOM     14  C   UNL     1      -3.416  -3.046   1.321  1.00  0.00     0.004 A 
ATOM     15  C   UNL     1      -4.955  -3.656  -0.937  1.00  0.00     0.000 A 
ATOM     16  C   UNL     1      -4.424  -4.013   1.400  1.00  0.00     0.000 A 
ATOM     17  C   UNL     1      -5.191  -4.320   0.271  1.00  0.00     0.000 A 
ENDBRANCH  11  12
ENDBRANCH  10  11
ENDBRANCH   4  10
ENDBRANCH   2   4
ENDBRANCH   1   2
BRANCH   1  18
ATOM     18  C   UNL     1       1.752   1.615   2.044  1.00  0.00     0.099 C 
BRANCH  18  19
ATOM     19  S   UNL     1       3.498   1.411   1.532  1.00  0.00    -0.149 SA
BRANCH  19  20
ATOM     20  C   UNL     1       3.495  -0.434   1.443  1.00  0.00     0.106 CG0
ATOM     21  G   UNL     1       2.250  -0.999   0.710  1.00  0.00     0.000 G0
BRANCH  20  22
ATOM     22  C   UNL     1       4.800  -0.915   0.840  1.00  0.00     0.019 A 
ATOM     23  C   UNL     1       6.059  -0.363   1.083  1.00  0.00     0.016 A 
ATOM     24  S   UNL     1       5.040  -2.331  -0.050  1.00  0.00    -0.148 S 
ATOM     25  C   UNL     1       7.112  -1.074   0.495  1.00  0.00     0.012 A 
ATOM     26  C   UNL     1       6.708  -2.212  -0.187  1.00  0.00     0.065 A 
ENDBRANCH  20  22
ENDBRANCH  19  20
ENDBRANCH  18  19
ENDBRANCH   1  18
BRANCH   1  27
ATOM     27  C   UNL     1       1.309   1.064  -0.434  1.00  0.00     0.241 C 
ATOM     28  O   UNL     1       1.192   1.759  -1.480  1.00  0.00    -0.273 OA
BRANCH  27  29
ATOM     29  N   UNL     1       1.935  -0.240  -0.511  1.00  0.00    -0.329 N 
BRANCH  29  30
ATOM     30  C   UNL     1       2.250  -0.999   0.710  1.00  0.00     0.140 CG0
ATOM     31  G   UNL     1       3.495  -0.434   1.443  1.00  0.00     0.000 G0
ENDBRANCH  29  30
BRANCH  29  32
ATOM     32  C   UNL     1       2.147  -0.859  -1.830  1.00  0.00     0.242 C 
BRANCH  32  33
ATOM     33  C   UNL     1       3.197  -0.122  -2.609  1.00  0.00     0.323 C 
ATOM     34  O   UNL     1       3.054   0.050  -3.851  1.00  0.00    -0.250 OA
BRANCH  33  35
ATOM     35  O   UNL     1       4.349   0.333  -1.974  1.00  0.00    -0.480 OA
ATOM     36  H   UNL     1       5.078   0.801  -2.498  1.00  0.00     0.296 HD
ENDBRANCH  33  35
ENDBRANCH  32  33
ENDBRANCH  29  32
ENDBRANCH  27  29
ENDBRANCH   1  27
TORSDOF 12
