REMARK SMILES COC(=O)N(C)c1c(N)nc(-c2nn(Cc3ccccc3F)c3ncccc23)nc1N
REMARK SMILES IDX 7 1 8 2 10 3 11 4 29 5 30 6 5 7 6 8 3 9 4 10 2 11 1 12 9 13
REMARK SMILES IDX 31 16 12 19 13 20 28 21 14 22 23 23 27 24 24 25 26 26 25 27
REMARK SMILES IDX 15 28 16 29 21 30 17 31 22 32 20 33 18 34 19 35
REMARK H PARENT 9 14 9 15 31 17 31 18
REMARK Flexibility Score: inf
ROOT
ATOM      1  C   UNL     1       3.172   0.288  -0.568  1.00  0.00     0.132 A 
ATOM      2  C   UNL     1       2.723   0.072   0.747  1.00  0.00     0.154 A 
ATOM      3  N   UNL     1       1.417   0.293   1.053  1.00  0.00    -0.207 NA
ATOM      4  C   UNL     1       0.530   0.719   0.117  1.00  0.00     0.184 A 
ATOM      5  N   UNL     1       0.949   0.934  -1.157  1.00  0.00    -0.207 NA
ATOM      6  C   UNL     1       2.242   0.731  -1.524  1.00  0.00     0.154 A 
ENDROOT
BRANCH   1   7
ATOM      7  N   UNL     1       4.545   0.066  -0.926  1.00  0.00    -0.274 N 
ATOM      8  C   UNL     1       5.486   1.184  -0.889  1.00  0.00     0.157 C 
BRANCH   7   9
ATOM      9  C   UNL     1       5.010  -1.260  -1.222  1.00  0.00     0.413 C 
ATOM     10  O   UNL     1       4.196  -2.225  -1.245  1.00  0.00    -0.224 OA
BRANCH   9  11
ATOM     11  O   UNL     1       6.366  -1.480  -1.485  1.00  0.00    -0.452 OA
ATOM     12  C   UNL     1       6.892  -2.767  -1.783  1.00  0.00     0.284 C 
ENDBRANCH   9  11
ENDBRANCH   7   9
ENDBRANCH   1   7
BRANCH   2  13
ATOM     13  N   UNL     1       3.614  -0.369   1.774  1.00  0.00    -0.382 N 
ATOM     14  H   UNL     1       3.256  -0.525   2.743  1.00  0.00     0.158 HD
ATOM     15  H   UNL     1       4.627  -0.537   1.590  1.00  0.00     0.158 HD
ENDBRANCH   2  13
BRANCH   6  16
ATOM     16  N   UNL     1       2.627   0.965  -2.881  1.00  0.00    -0.382 N 
ATOM     17  H   UNL     1       1.920   1.297  -3.574  1.00  0.00     0.158 HD
ATOM     18  H   UNL     1       3.605   0.808  -3.210  1.00  0.00     0.158 HD
ENDBRANCH   6  16
BRANCH   4  19
ATOM     19  C   UNL     1      -0.880   0.951   0.468  1.00  0.00     0.139 A 
ATOM     20  N   UNL     1      -1.811   1.376  -0.426  1.00  0.00    -0.166 NA
ATOM     21  C   UNL     1      -1.498   0.773   1.699  1.00  0.00     0.050 A 
ATOM     22  N   UNL     1      -2.976   1.482   0.204  1.00  0.00    -0.242 N 
ATOM     23  C   UNL     1      -2.801   1.111   1.483  1.00  0.00     0.158 A 
ATOM     24  C   UNL     1      -1.070   0.342   2.953  1.00  0.00     0.016 A 
ATOM     25  N   UNL     1      -3.746   1.045   2.454  1.00  0.00    -0.237 NA
ATOM     26  C   UNL     1      -2.035   0.272   3.974  1.00  0.00     0.021 A 
ATOM     27  C   UNL     1      -3.376   0.630   3.703  1.00  0.00     0.113 A 
BRANCH  22  28
ATOM     28  C   UNL     1      -4.232   1.839  -0.448  1.00  0.00     0.185 C 
BRANCH  28  29
ATOM     29  C   UNL     1      -4.943   0.594  -0.905  1.00  0.00     0.009 A 
ATOM     30  C   UNL     1      -4.588  -0.028  -2.117  1.00  0.00     0.128 A 
ATOM     31  C   UNL     1      -5.925   0.004  -0.091  1.00  0.00     0.008 A 
ATOM     32  F   UNL     1      -3.624   0.503  -2.911  1.00  0.00    -0.207 F 
ATOM     33  C   UNL     1      -5.227  -1.208  -2.513  1.00  0.00     0.039 A 
ATOM     34  C   UNL     1      -6.559  -1.175  -0.493  1.00  0.00     0.001 A 
ATOM     35  C   UNL     1      -6.212  -1.780  -1.704  1.00  0.00     0.003 A 
ENDBRANCH  28  29
ENDBRANCH  22  28
ENDBRANCH   4  19
TORSDOF 8
