REMARK SMILES CC(C)(C)c1cc(C(C)(C)C)c(NC(=O)c2c[nH]c3ccccc3c2=O)cc1O
REMARK SMILES IDX 7 1 6 2 5 3 28 4 27 5 12 6 8 7 9 8 10 9 11 10 13 11 14 12
REMARK SMILES IDX 15 14 16 15 17 16 25 17 18 18 24 19 26 20 19 21 23 23 20 24
REMARK SMILES IDX 22 25 21 26 2 27 1 28 3 29 4 30 29 31
REMARK H PARENT 13 13 18 22 29 32
REMARK Flexibility Score: inf
ROOT
ATOM      1  C   UNL     1      -1.535  -0.035  -0.533  1.00  0.00    -0.018 A 
ATOM      2  C   UNL     1      -2.887   0.290  -0.241  1.00  0.00     0.014 A 
ATOM      3  C   UNL     1      -3.278   1.014   0.915  1.00  0.00    -0.000 A 
ATOM      4  C   UNL     1      -2.255   1.434   1.797  1.00  0.00     0.121 A 
ATOM      5  C   UNL     1      -0.921   1.142   1.520  1.00  0.00     0.072 A 
ATOM      6  C   UNL     1      -0.547   0.425   0.383  1.00  0.00     0.048 A 
ENDROOT
BRANCH   1   7
ATOM      7  C   UNL     1      -1.166  -0.850  -1.812  1.00  0.00    -0.011 C 
ATOM      8  C   UNL     1      -0.381   0.044  -2.798  1.00  0.00     0.016 C 
ATOM      9  C   UNL     1      -2.408  -1.378  -2.581  1.00  0.00     0.016 C 
ATOM     10  C   UNL     1      -0.323  -2.095  -1.444  1.00  0.00     0.016 C 
ENDBRANCH   1   7
BRANCH   6  11
ATOM     11  N   UNL     1       0.854   0.216   0.173  1.00  0.00    -0.321 N 
ATOM     12  C   UNL     1       1.622  -0.630   1.045  1.00  0.00     0.261 C 
ATOM     13  H   UNL     1       1.357   0.930  -0.398  1.00  0.00     0.170 HD
ATOM     14  O   UNL     1       1.035  -1.307   1.933  1.00  0.00    -0.269 OA
BRANCH  12  15
ATOM     15  C   UNL     1       3.100  -0.705   0.937  1.00  0.00     0.104 A 
ATOM     16  C   UNL     1       3.861  -0.874   2.104  1.00  0.00     0.100 A 
ATOM     17  C   UNL     1       3.770  -0.636  -0.303  1.00  0.00     0.202 A 
ATOM     18  N   UNL     1       5.218  -0.939   2.049  1.00  0.00    -0.360 N 
ATOM     19  C   UNL     1       5.176  -0.699  -0.344  1.00  0.00     0.046 A 
ATOM     20  O   UNL     1       3.113  -0.543  -1.377  1.00  0.00    -0.288 OA
ATOM     21  C   UNL     1       5.891  -0.852   0.868  1.00  0.00     0.049 A 
ATOM     22  H   UNL     1       5.744  -1.056   2.945  1.00  0.00     0.166 HD
ATOM     23  C   UNL     1       5.886  -0.621  -1.558  1.00  0.00     0.014 A 
ATOM     24  C   UNL     1       7.293  -0.920   0.845  1.00  0.00     0.027 A 
ATOM     25  C   UNL     1       7.282  -0.689  -1.564  1.00  0.00     0.001 A 
ATOM     26  C   UNL     1       7.983  -0.838  -0.366  1.00  0.00     0.002 A 
ENDBRANCH  12  15
ENDBRANCH   6  11
BRANCH   3  27
ATOM     27  C   UNL     1      -4.771   1.340   1.210  1.00  0.00    -0.010 C 
ATOM     28  C   UNL     1      -5.745   0.797   0.130  1.00  0.00     0.016 C 
ATOM     29  C   UNL     1      -4.978   2.871   1.266  1.00  0.00     0.016 C 
ATOM     30  C   UNL     1      -5.197   0.703   2.553  1.00  0.00     0.016 C 
ENDBRANCH   3  27
BRANCH   4  31
ATOM     31  O   UNL     1      -2.548   2.150   2.957  1.00  0.00    -0.508 OA
ATOM     32  H   UNL     1      -1.825   2.458   3.597  1.00  0.00     0.293 HD
ENDBRANCH   4  31
TORSDOF 5
