REMARK SMILES COc1ccc(-c2cc(=O)c3c(O)cc(O[C@@H]4O[C@H](CO[C@@H]5O[C@@H](C)[C@H](O)[C@@H](O)[C@H]5O)[C@@H](O)[C@H](O)[C@H]4O)cc3o2)cc1O
REMARK SMILES IDX 17 1 18 2 19 3 32 4 34 5 36 6 16 7 15 8 7 9 8 10 40 11 9 12
REMARK SMILES IDX 39 13 10 14 11 15 38 16 12 17 14 18 6 19 3 20 42 21 4 22
REMARK SMILES IDX 41 23 5 24 2 25 1 26 43 27 13 29 37 31 20 33 21 34 22 35
REMARK SMILES IDX 23 36 30 37 24 38 28 39 25 40 26 41 31 42 29 44 27 46 35 48
REMARK SMILES IDX 33 50
REMARK H PARENT 43 28 13 30 37 32 31 43 29 45 27 47 35 49 33 51
REMARK Flexibility Score: inf
ROOT
ATOM      1  C   UNL     1      -1.240  -2.118   0.118  1.00  0.00     0.339 C 
ATOM      2  O   UNL     1      -2.299  -1.382  -0.468  1.00  0.00    -0.332 OA
ATOM      3  C   UNL     1      -3.462  -2.185  -0.600  1.00  0.00     0.180 C 
ATOM      4  C   UNL     1      -4.005  -2.568   0.800  1.00  0.00     0.177 C 
ATOM      5  C   UNL     1      -2.903  -3.293   1.603  1.00  0.00     0.180 C 
ATOM      6  C   UNL     1      -1.595  -2.483   1.578  1.00  0.00     0.214 C 
ENDROOT
BRANCH   1   7
ATOM      7  O   UNL     1      -0.078  -1.285   0.105  1.00  0.00    -0.462 OA
BRANCH   7   8
ATOM      8  C   UNL     1       1.261  -1.704  -0.016  1.00  0.00     0.130 A 
ATOM      9  C   UNL     1       5.794  -0.271  -0.318  1.00  0.00     0.138 A 
ATOM     10  C   UNL     1       6.278  -1.575  -0.468  1.00  0.00     0.100 A 
ATOM     11  O   UNL     1       4.490  -0.066  -0.168  1.00  0.00    -0.456 OA
ATOM     12  C   UNL     1       5.385  -2.646  -0.452  1.00  0.00     0.197 A 
ATOM     13  C   UNL     1       3.593  -1.048  -0.175  1.00  0.00     0.146 A 
ATOM     14  O   UNL     1       5.857  -3.810  -0.516  1.00  0.00    -0.289 OA
ATOM     15  C   UNL     1       3.993  -2.401  -0.336  1.00  0.00     0.107 A 
ATOM     16  C   UNL     1       2.246  -0.719  -0.024  1.00  0.00     0.094 A 
ATOM     17  C   UNL     1       2.985  -3.409  -0.342  1.00  0.00     0.134 A 
ATOM     18  C   UNL     1       1.645  -3.051  -0.149  1.00  0.00     0.093 A 
BRANCH   9  19
ATOM     19  C   UNL     1       6.708   0.890  -0.304  1.00  0.00     0.021 A 
ATOM     20  C   UNL     1       8.412   3.139  -0.280  1.00  0.00     0.160 A 
ATOM     21  C   UNL     1       7.314   3.069   0.599  1.00  0.00     0.158 A 
ATOM     22  C   UNL     1       8.643   2.077  -1.174  1.00  0.00     0.051 A 
ATOM     23  C   UNL     1       6.467   1.956   0.575  1.00  0.00     0.062 A 
ATOM     24  C   UNL     1       7.801   0.962  -1.182  1.00  0.00     0.016 A 
BRANCH  20  25
ATOM     25  O   UNL     1       9.242   4.271  -0.240  1.00  0.00    -0.493 OA
ATOM     26  C   UNL     1      10.301   4.528  -1.154  1.00  0.00     0.278 C 
ENDBRANCH  20  25
BRANCH  21  27
ATOM     27  O   UNL     1       7.046   4.101   1.501  1.00  0.00    -0.504 OA
ATOM     28  H   UNL     1       7.622   4.930   1.557  1.00  0.00     0.293 HD
ENDBRANCH  21  27
ENDBRANCH   9  19
BRANCH  17  29
ATOM     29  O   UNL     1       3.237  -4.769  -0.551  1.00  0.00    -0.507 OA
ATOM     30  H   UNL     1       4.078  -5.147  -0.959  1.00  0.00     0.293 HD
ENDBRANCH  17  29
ENDBRANCH   7   8
ENDBRANCH   1   7
BRANCH   6  31
ATOM     31  O   UNL     1      -0.570  -3.248   2.161  1.00  0.00    -0.384 OA
ATOM     32  H   UNL     1       0.118  -2.609   2.488  1.00  0.00     0.211 HD
ENDBRANCH   6  31
BRANCH   3  33
ATOM     33  C   UNL     1      -4.502  -1.409  -1.415  1.00  0.00     0.198 C 
BRANCH  33  34
ATOM     34  O   UNL     1      -4.742  -0.151  -0.817  1.00  0.00    -0.347 OA
BRANCH  34  35
ATOM     35  C   UNL     1      -5.798   0.536  -1.475  1.00  0.00     0.281 C 
ATOM     36  O   UNL     1      -5.427   1.884  -1.727  1.00  0.00    -0.344 OA
ATOM     37  C   UNL     1      -7.092   0.460  -0.634  1.00  0.00     0.202 C 
ATOM     38  C   UNL     1      -5.150   2.590  -0.527  1.00  0.00     0.150 C 
ATOM     39  C   UNL     1      -6.929   1.259   0.671  1.00  0.00     0.179 C 
ATOM     40  C   UNL     1      -4.653   3.988  -0.901  1.00  0.00     0.041 C 
ATOM     41  C   UNL     1      -6.416   2.675   0.363  1.00  0.00     0.174 C 
BRANCH  37  42
ATOM     42  O   UNL     1      -8.172   0.973  -1.371  1.00  0.00    -0.385 OA
ATOM     43  H   UNL     1      -8.444   0.266  -2.014  1.00  0.00     0.211 HD
ENDBRANCH  37  42
BRANCH  39  44
ATOM     44  O   UNL     1      -8.158   1.342   1.345  1.00  0.00    -0.387 OA
ATOM     45  H   UNL     1      -8.306   0.464   1.782  1.00  0.00     0.211 HD
ENDBRANCH  39  44
BRANCH  41  46
ATOM     46  O   UNL     1      -6.163   3.376   1.556  1.00  0.00    -0.388 OA
ATOM     47  H   UNL     1      -5.400   2.933   2.011  1.00  0.00     0.211 HD
ENDBRANCH  41  46
ENDBRANCH  34  35
ENDBRANCH  33  34
ENDBRANCH   3  33
BRANCH   5  48
ATOM     48  O   UNL     1      -3.320  -3.533   2.924  1.00  0.00    -0.387 OA
ATOM     49  H   UNL     1      -3.505  -2.654   3.347  1.00  0.00     0.211 HD
ENDBRANCH   5  48
BRANCH   4  50
ATOM     50  O   UNL     1      -5.157  -3.370   0.706  1.00  0.00    -0.387 OA
ATOM     51  H   UNL     1      -4.917  -4.182   0.189  1.00  0.00     0.211 HD
ENDBRANCH   4  50
TORSDOF 15
