REMARK SMILES CN(C)c1ccc2nc3ccc(N(C)C)cc3[s+]c2c1
REMARK SMILES IDX 4 1 20 2 19 3 18 4 17 5 16 6 12 7 11 8 10 9 9 10 8 11 7 12
REMARK SMILES IDX 6 13 5 14 2 15 1 16 3 17 13 18 14 19 15 20
REMARK H PARENT
REMARK Flexibility Score: inf
ROOT
ATOM      1  C   UNL     1       3.815   0.048   0.066  1.00  0.00     0.042 A 
ATOM      2  C   UNL     1       2.653   0.783  -0.247  1.00  0.00     0.100 A 
ATOM      3  C   UNL     1       1.389   0.201  -0.109  1.00  0.00     0.259 A 
ATOM      4  S   UNL     1      -0.015   1.059  -0.475  1.00  0.00     0.232 S 
ATOM      5  C   UNL     1      -1.394   0.121  -0.221  1.00  0.00     0.259 A 
ATOM      6  C   UNL     1      -2.673   0.631  -0.461  1.00  0.00     0.100 A 
ATOM      7  C   UNL     1      -3.814  -0.169  -0.241  1.00  0.00     0.042 A 
ATOM      8  C   UNL     1      -3.625  -1.488   0.225  1.00  0.00     0.028 A 
ATOM      9  C   UNL     1      -2.341  -1.990   0.461  1.00  0.00     0.036 A 
ATOM     10  C   UNL     1      -1.213  -1.195   0.242  1.00  0.00     0.129 A 
ATOM     11  N   UNL     1       0.025  -1.724   0.487  1.00  0.00    -0.237 NA
ATOM     12  C   UNL     1       1.247  -1.124   0.341  1.00  0.00     0.129 A 
ATOM     13  C   UNL     1       2.398  -1.855   0.652  1.00  0.00     0.036 A 
ATOM     14  C   UNL     1       3.665  -1.280   0.518  1.00  0.00     0.028 A 
ENDROOT
BRANCH   1  15
ATOM     15  N   UNL     1       5.132   0.644  -0.073  1.00  0.00    -0.377 N 
ATOM     16  C   UNL     1       6.281   0.093   0.656  1.00  0.00     0.143 C 
ATOM     17  C   UNL     1       5.338   1.806  -0.945  1.00  0.00     0.143 C 
ENDBRANCH   1  15
BRANCH   7  18
ATOM     18  N   UNL     1      -5.147   0.351  -0.487  1.00  0.00    -0.377 N 
ATOM     19  C   UNL     1      -5.348   1.502  -1.375  1.00  0.00     0.143 C 
ATOM     20  C   UNL     1      -6.318  -0.267   0.149  1.00  0.00     0.143 C 
ENDBRANCH   7  18
TORSDOF 2
