REMARK SMILES CCOc1nc2cccc(C(=O)OCc3oc(=O)oc3C)c2n1Cc1ccc(-c2ccccc2-c2noc(=O)[nH]2)cc1
REMARK SMILES IDX 4 1 5 2 6 3 22 4 23 5 10 6 9 7 8 8 7 9 3 10 2 11 1 12 24 13
REMARK SMILES IDX 25 14 26 15 42 16 27 17 41 18 28 19 29 20 30 21 34 22 31 23
REMARK SMILES IDX 33 24 32 25 35 26 36 27 40 28 37 29 38 30 39 32 11 33 12 34
REMARK SMILES IDX 13 35 14 36 15 37 20 38 16 39 21 40 19 41 17 42 18 43
REMARK H PARENT 40 31
REMARK Flexibility Score: inf
ROOT
ATOM      1  C   UNL     1       1.222  -3.288  -0.393  1.00  0.00     0.297 A 
ATOM      2  N   UNL     1       1.917  -4.127   0.413  1.00  0.00    -0.195 NA
ATOM      3  C   UNL     1       2.619  -3.281   1.187  1.00  0.00     0.093 A 
ATOM      4  C   UNL     1       2.340  -1.973   0.873  1.00  0.00     0.086 A 
ATOM      5  N   UNL     1       1.463  -1.973  -0.160  1.00  0.00    -0.289 N 
ATOM      6  C   UNL     1       2.967  -0.909   1.566  1.00  0.00     0.086 A 
ATOM      7  C   UNL     1       3.944  -1.253   2.528  1.00  0.00     0.018 A 
ATOM      8  C   UNL     1       4.234  -2.601   2.818  1.00  0.00     0.003 A 
ATOM      9  C   UNL     1       3.555  -3.632   2.154  1.00  0.00     0.031 A 
ENDROOT
BRANCH   1  10
ATOM     10  O   UNL     1       0.346  -3.729  -1.389  1.00  0.00    -0.465 OA
BRANCH  10  11
ATOM     11  C   UNL     1       0.080  -5.108  -1.616  1.00  0.00     0.229 C 
ATOM     12  C   UNL     1      -0.903  -5.250  -2.765  1.00  0.00     0.049 C 
ENDBRANCH  10  11
ENDBRANCH   1  10
BRANCH   5  13
ATOM     13  C   UNL     1       0.952  -0.876  -0.988  1.00  0.00     0.163 C 
BRANCH  13  14
ATOM     14  C   UNL     1      -0.509  -0.601  -0.716  1.00  0.00    -0.028 A 
ATOM     15  C   UNL     1      -1.079  -0.818   0.553  1.00  0.00     0.006 A 
ATOM     16  C   UNL     1      -1.311  -0.076  -1.741  1.00  0.00     0.006 A 
ATOM     17  C   UNL     1      -2.433  -0.557   0.774  1.00  0.00     0.009 A 
ATOM     18  C   UNL     1      -2.664   0.192  -1.517  1.00  0.00     0.009 A 
ATOM     19  C   UNL     1      -3.235  -0.049  -0.258  1.00  0.00    -0.018 A 
BRANCH  19  20
ATOM     20  C   UNL     1      -4.679   0.189  -0.035  1.00  0.00    -0.007 A 
ATOM     21  C   UNL     1      -5.481  -0.902   0.345  1.00  0.00     0.009 A 
ATOM     22  C   UNL     1      -5.282   1.457  -0.249  1.00  0.00     0.029 A 
ATOM     23  C   UNL     1      -6.860  -0.754   0.489  1.00  0.00     0.001 A 
ATOM     24  C   UNL     1      -6.677   1.581  -0.112  1.00  0.00     0.013 A 
ATOM     25  C   UNL     1      -7.458   0.483   0.254  1.00  0.00     0.001 A 
BRANCH  22  26
ATOM     26  C   UNL     1      -4.486   2.669  -0.556  1.00  0.00     0.183 A 
ATOM     27  N   UNL     1      -3.240   2.897  -0.082  1.00  0.00    -0.055 NA
ATOM     28  N   UNL     1      -4.929   3.704  -1.300  1.00  0.00    -0.270 N 
ATOM     29  O   UNL     1      -2.906   4.069  -0.540  1.00  0.00    -0.296 OA
ATOM     30  C   UNL     1      -3.890   4.549  -1.257  1.00  0.00     0.439 A 
ATOM     31  H   UNL     1      -5.840   3.819  -1.798  1.00  0.00     0.175 HD
ATOM     32  O   UNL     1      -3.867   5.668  -1.833  1.00  0.00    -0.222 OA
ENDBRANCH  22  26
ENDBRANCH  19  20
ENDBRANCH  13  14
ENDBRANCH   5  13
BRANCH   6  33
ATOM     33  C   UNL     1       2.607   0.509   1.418  1.00  0.00     0.340 C 
ATOM     34  O   UNL     1       1.398   0.861   1.449  1.00  0.00    -0.246 OA
BRANCH  33  35
ATOM     35  O   UNL     1       3.620   1.467   1.337  1.00  0.00    -0.454 OA
BRANCH  35  36
ATOM     36  C   UNL     1       3.354   2.852   1.154  1.00  0.00     0.312 C 
BRANCH  36  37
ATOM     37  C   UNL     1       4.640   3.611   1.178  1.00  0.00     0.187 A 
ATOM     38  C   UNL     1       5.703   3.493   0.302  1.00  0.00     0.150 A 
ATOM     39  O   UNL     1       4.953   4.524   2.069  1.00  0.00    -0.392 OA
ATOM     40  C   UNL     1       5.814   2.573  -0.869  1.00  0.00     0.092 C 
ATOM     41  O   UNL     1       6.636   4.335   0.684  1.00  0.00    -0.396 OA
ATOM     42  C   UNL     1       6.157   4.941   1.747  1.00  0.00     0.519 A 
ATOM     43  O   UNL     1       6.785   5.823   2.389  1.00  0.00    -0.202 OA
ENDBRANCH  36  37
ENDBRANCH  35  36
ENDBRANCH  33  35
ENDBRANCH   6  33
TORSDOF 10
