REMARK SMILES O=C1[C@H]2CCCC[C@H]2C(=O)N1CCCCN1CCN(c2nsc3ccccc23)CC1
REMARK SMILES IDX 14 1 13 2 12 3 11 4 8 5 7 6 3 7 9 8 6 9 4 10 2 11 10 12 5 13
REMARK SMILES IDX 1 14 15 15 16 16 17 17 30 18 18 19 29 20 19 21 20 22 21 23
REMARK SMILES IDX 28 24 22 25 23 26 27 27 24 28 26 29 25 30
REMARK H PARENT
REMARK Flexibility Score: inf
ROOT
ATOM      1  C   UNL     1       0.427  -2.776  -1.024  1.00  0.00     0.017 C 
ENDROOT
BRANCH   1   2
ATOM      2  C   UNL     1       1.684  -1.920  -0.819  1.00  0.00     0.023 C 
BRANCH   2   3
ATOM      3  C   UNL     1       2.929  -2.794  -0.644  1.00  0.00     0.128 C 
BRANCH   3   4
ATOM      4  N   UNL     1       4.105  -1.955  -0.423  1.00  0.00    -0.282 N 
ATOM      5  C   UNL     1       5.243  -0.067   0.611  1.00  0.00     0.091 C 
ATOM      6  C   UNL     1       4.303   1.145   0.825  1.00  0.00     0.014 C 
ATOM      7  C   UNL     1       5.760  -0.241  -0.850  1.00  0.00     0.091 C 
ATOM      8  C   UNL     1       4.436  -1.316   0.802  1.00  0.00     0.233 C 
ATOM      9  C   UNL     1       4.762   2.391   0.077  1.00  0.00     0.001 C 
ATOM     10  C   UNL     1       5.942   1.052  -1.673  1.00  0.00     0.014 C 
ATOM     11  C   UNL     1       4.803  -1.235  -1.428  1.00  0.00     0.233 C 
ATOM     12  O   UNL     1       4.021  -1.720   1.920  1.00  0.00    -0.274 OA
ATOM     13  C   UNL     1       4.853   2.091  -1.416  1.00  0.00     0.001 C 
ATOM     14  O   UNL     1       4.675  -1.472  -2.659  1.00  0.00    -0.274 OA
ENDBRANCH   3   4
ENDBRANCH   2   3
ENDBRANCH   1   2
BRANCH   1  15
ATOM     15  C   UNL     1      -0.816  -1.910  -1.265  1.00  0.00     0.084 C 
BRANCH  15  16
ATOM     16  N   UNL     1      -1.082  -1.040  -0.096  1.00  0.00    -0.300 NA
ATOM     17  C   UNL     1      -1.592   0.295  -0.470  1.00  0.00     0.106 C 
ATOM     18  C   UNL     1      -1.930  -1.682   0.935  1.00  0.00     0.106 C 
ATOM     19  C   UNL     1      -3.042   0.234  -0.957  1.00  0.00     0.133 C 
ATOM     20  C   UNL     1      -3.416  -1.740   0.539  1.00  0.00     0.133 C 
ATOM     21  N   UNL     1      -3.865  -0.436   0.050  1.00  0.00    -0.353 N 
BRANCH  21  22
ATOM     22  C   UNL     1      -5.250  -0.082   0.178  1.00  0.00     0.150 A 
ATOM     23  N   UNL     1      -6.238  -0.978  -0.107  1.00  0.00    -0.174 NA
ATOM     24  C   UNL     1      -5.689   1.192   0.613  1.00  0.00     0.037 A 
ATOM     25  S   UNL     1      -7.673  -0.171   0.165  1.00  0.00    -0.034 S 
ATOM     26  C   UNL     1      -7.069   1.300   0.650  1.00  0.00     0.057 A 
ATOM     27  C   UNL     1      -4.900   2.273   1.026  1.00  0.00     0.013 A 
ATOM     28  C   UNL     1      -7.729   2.453   1.060  1.00  0.00     0.021 A 
ATOM     29  C   UNL     1      -5.536   3.457   1.441  1.00  0.00     0.001 A 
ATOM     30  C   UNL     1      -6.944   3.548   1.456  1.00  0.00     0.002 A 
ENDBRANCH  21  22
ENDBRANCH  15  16
ENDBRANCH   1  15
TORSDOF 6
