REMARK SMILES CC(=O)Nc1cccc(-n2c(=O)n(C3CC3)c(=O)c3c(Nc4ccc(I)cc4F)n(C)c(=O)c(C)c32)c1
REMARK SMILES IDX 31 1 30 2 32 3 33 4 34 5 35 6 36 7 10 8 11 9 12 10 13 11
REMARK SMILES IDX 17 12 18 13 19 14 20 15 21 16 22 18 23 19 28 20 24 21 27 22
REMARK SMILES IDX 29 23 25 24 26 25 9 26 37 27 8 28 5 29 7 30 6 31 4 32 2 33
REMARK SMILES IDX 1 35 3 36 14 37 15 38 16 39
REMARK H PARENT 21 17 4 34
REMARK Flexibility Score: inf
ROOT
ATOM      1  C   UNL     1      -3.205   2.900  -1.289  1.00  0.00     0.155 C 
ATOM      2  N   UNL     1      -2.065   1.968  -1.398  1.00  0.00    -0.297 N 
ATOM      3  C   UNL     1      -0.802   2.453  -1.605  1.00  0.00     0.256 A 
ATOM      4  O   UNL     1      -0.617   3.698  -1.728  1.00  0.00    -0.269 OA
ATOM      5  C   UNL     1       0.303   1.584  -1.690  1.00  0.00     0.040 A 
ATOM      6  C   UNL     1       1.609   2.152  -2.208  1.00  0.00     0.053 C 
ATOM      7  C   UNL     1       0.124   0.198  -1.395  1.00  0.00     0.076 A 
ATOM      8  N   UNL     1       1.178  -0.681  -1.214  1.00  0.00    -0.261 N 
ATOM      9  C   UNL     1       0.953  -2.033  -1.155  1.00  0.00     0.336 A 
ATOM     10  O   UNL     1       1.935  -2.829  -1.089  1.00  0.00    -0.247 OA
ATOM     11  N   UNL     1      -0.318  -2.535  -1.146  1.00  0.00    -0.256 N 
ATOM     12  C   UNL     1      -1.390  -1.692  -1.244  1.00  0.00     0.268 A 
ATOM     13  O   UNL     1      -2.553  -2.180  -1.310  1.00  0.00    -0.268 OA
ATOM     14  C   UNL     1      -1.199  -0.294  -1.304  1.00  0.00     0.106 A 
ATOM     15  C   UNL     1      -2.284   0.622  -1.262  1.00  0.00     0.128 A 
ENDROOT
BRANCH  15  16
ATOM     16  N   UNL     1      -3.617   0.152  -1.004  1.00  0.00    -0.338 N 
ATOM     17  H   UNL     1      -4.201  -0.093  -1.836  1.00  0.00     0.168 HD
BRANCH  16  18
ATOM     18  C   UNL     1      -4.212   0.105   0.309  1.00  0.00     0.076 A 
ATOM     19  C   UNL     1      -5.578  -0.205   0.420  1.00  0.00     0.030 A 
ATOM     20  C   UNL     1      -3.471   0.352   1.488  1.00  0.00     0.147 A 
ATOM     21  C   UNL     1      -6.198  -0.261   1.671  1.00  0.00     0.017 A 
ATOM     22  C   UNL     1      -4.099   0.293   2.736  1.00  0.00     0.056 A 
ATOM     23  F   UNL     1      -2.148   0.646   1.448  1.00  0.00    -0.205 F 
ATOM     24  C   UNL     1      -5.459  -0.013   2.830  1.00  0.00     0.016 A 
ATOM     25  I   UNL     1      -6.395  -0.101   4.718  1.00  0.00    -0.044 I 
ENDBRANCH  16  18
ENDBRANCH  15  16
BRANCH   8  26
ATOM     26  C   UNL     1       2.498  -0.226  -0.842  1.00  0.00     0.053 A 
ATOM     27  C   UNL     1       2.693   0.412   0.394  1.00  0.00     0.053 A 
ATOM     28  C   UNL     1       3.602  -0.477  -1.672  1.00  0.00     0.027 A 
ATOM     29  C   UNL     1       3.976   0.815   0.796  1.00  0.00     0.043 A 
ATOM     30  C   UNL     1       4.878  -0.057  -1.289  1.00  0.00     0.004 A 
ATOM     31  C   UNL     1       5.066   0.593  -0.065  1.00  0.00     0.026 A 
BRANCH  29  32
ATOM     32  N   UNL     1       4.138   1.498   2.050  1.00  0.00    -0.326 N 
ATOM     33  C   UNL     1       5.291   1.366   2.894  1.00  0.00     0.221 C 
ATOM     34  H   UNL     1       3.331   2.053   2.417  1.00  0.00     0.169 HD
ATOM     35  C   UNL     1       5.457   2.273   4.069  1.00  0.00     0.114 C 
ATOM     36  O   UNL     1       6.142   0.459   2.685  1.00  0.00    -0.275 OA
ENDBRANCH  29  32
ENDBRANCH   8  26
BRANCH  11  37
ATOM     37  C   UNL     1      -0.531  -3.997  -1.113  1.00  0.00     0.096 C 
ATOM     38  C   UNL     1       0.073  -4.702   0.099  1.00  0.00     0.028 C 
ATOM     39  C   UNL     1      -1.425  -4.490   0.023  1.00  0.00     0.028 C 
ENDBRANCH  11  37
TORSDOF 5
