REMARK SMILES C[C@H](CCC(=O)NCCS(=O)(=O)O)[C@H]1CC[C@H]2[C@@H]3[C@@H](O)C[C@@H]4C[C@H](O)CC[C@]4(C)[C@H]3CC[C@]12C
REMARK SMILES IDX 5 1 6 2 7 3 4 5 3 6 2 7 1 8 14 9 17 10 16 11 33 12 18 13
REMARK SMILES IDX 15 14 34 15 32 16 30 17 19 18 31 19 28 20 21 21 22 22 27 23
REMARK SMILES IDX 29 24 23 25 26 26 24 27 20 28 25 30 8 32 9 33 10 34 11 35
REMARK SMILES IDX 12 36 13 37
REMARK H PARENT 7 4 20 29 25 31 13 38
REMARK Flexibility Score: inf
ROOT
ATOM      1  C   UNL     1       5.358   0.463   1.230  1.00  0.00     0.220 C 
ATOM      2  O   UNL     1       5.600   1.686   1.037  1.00  0.00    -0.275 OA
ATOM      3  N   UNL     1       6.425  -0.452   1.515  1.00  0.00    -0.355 N 
ATOM      4  H   UNL     1       6.193  -1.444   1.749  1.00  0.00     0.163 HD
ENDROOT
BRANCH   1   5
ATOM      5  C   UNL     1       3.951  -0.038   1.114  1.00  0.00     0.100 C 
BRANCH   5   6
ATOM      6  C   UNL     1       3.709  -0.622  -0.288  1.00  0.00     0.013 C 
BRANCH   6   7
ATOM      7  C   UNL     1       2.311  -1.274  -0.484  1.00  0.00    -0.010 C 
ATOM      8  C   UNL     1       2.176  -2.515   0.420  1.00  0.00     0.008 C 
BRANCH   7   9
ATOM      9  C   UNL     1       1.134  -0.255  -0.287  1.00  0.00    -0.002 C 
ATOM     10  C   UNL     1      -1.041   0.629  -0.688  1.00  0.00     0.001 C 
ATOM     11  C   UNL     1      -0.119   1.486  -1.542  1.00  0.00     0.005 C 
ATOM     12  C   UNL     1      -0.321  -0.732  -0.584  1.00  0.00    -0.026 C 
ATOM     13  C   UNL     1      -2.540   0.509  -1.072  1.00  0.00     0.025 C 
ATOM     14  C   UNL     1       1.292   1.003  -1.181  1.00  0.00     0.005 C 
ATOM     15  C   UNL     1      -0.367  -1.556  -1.911  1.00  0.00     0.012 C 
ATOM     16  C   UNL     1      -1.005  -1.517   0.561  1.00  0.00     0.007 C 
ATOM     17  C   UNL     1      -3.253  -0.333   0.046  1.00  0.00     0.001 C 
ATOM     18  C   UNL     1      -3.208   1.902  -1.219  1.00  0.00     0.118 C 
ATOM     19  C   UNL     1      -2.521  -1.683   0.316  1.00  0.00     0.005 C 
ATOM     20  C   UNL     1      -4.806  -0.484  -0.212  1.00  0.00    -0.026 C 
ATOM     21  C   UNL     1      -4.726   1.780  -1.448  1.00  0.00     0.036 C 
ATOM     22  C   UNL     1      -5.445   0.940  -0.372  1.00  0.00     0.000 C 
ATOM     23  C   UNL     1      -5.543  -1.221   0.953  1.00  0.00     0.010 C 
ATOM     24  C   UNL     1      -5.084  -1.322  -1.493  1.00  0.00     0.012 C 
ATOM     25  C   UNL     1      -5.530   1.725   0.964  1.00  0.00     0.036 C 
ATOM     26  C   UNL     1      -5.577  -0.427   2.263  1.00  0.00     0.032 C 
ATOM     27  C   UNL     1      -6.259   0.926   2.052  1.00  0.00     0.114 C 
BRANCH  18  28
ATOM     28  O   UNL     1      -2.653   2.579  -2.317  1.00  0.00    -0.393 OA
ATOM     29  H   UNL     1      -2.861   3.542  -2.200  1.00  0.00     0.210 HD
ENDBRANCH  18  28
BRANCH  27  30
ATOM     30  O   UNL     1      -6.245   1.640   3.261  1.00  0.00    -0.393 OA
ATOM     31  H   UNL     1      -6.907   2.373   3.168  1.00  0.00     0.210 HD
ENDBRANCH  27  30
ENDBRANCH   7   9
ENDBRANCH   6   7
ENDBRANCH   5   6
ENDBRANCH   1   5
BRANCH   3  32
ATOM     32  C   UNL     1       7.827  -0.041   1.539  1.00  0.00     0.134 C 
BRANCH  32  33
ATOM     33  C   UNL     1       8.345   0.168   0.115  1.00  0.00     0.188 C 
BRANCH  33  34
ATOM     34  S   UNL     1      10.059   0.664   0.131  1.00  0.00     0.266 S 
ATOM     35  O   UNL     1      10.888  -0.414   0.771  1.00  0.00    -0.200 OA
ATOM     36  O   UNL     1      10.532   0.878  -1.280  1.00  0.00    -0.200 OA
BRANCH  34  37
ATOM     37  O   UNL     1      10.238   2.092   1.002  1.00  0.00    -0.285 OA
ATOM     38  H   UNL     1       9.562   2.708   0.622  1.00  0.00     0.234 HD
ENDBRANCH  34  37
ENDBRANCH  33  34
ENDBRANCH  32  33
ENDBRANCH   3  32
TORSDOF 10
