REMARK SMILES CCCCCCCCCC(=O)O[C@H]1CC[C@H]2[C@@H]3CCC4=CC(=O)CC[C@@H]4[C@H]3CC[C@]12C
REMARK SMILES IDX 7 1 8 2 9 3 10 4 11 5 12 6 13 7 16 8 15 9 30 10 17 11 14 12
REMARK SMILES IDX 31 13 29 14 27 15 18 16 28 17 26 18 19 19 25 20 20 21 24 22
REMARK SMILES IDX 21 23 22 24 23 25 6 26 5 27 4 28 3 29 2 30 1 31
REMARK H PARENT
REMARK Flexibility Score: inf
ROOT
ATOM      1  C   UNL     1       5.300  -1.407   1.862  1.00  0.00     0.001 C 
ENDROOT
BRANCH   1   2
ATOM      2  C   UNL     1       4.123  -0.416   1.941  1.00  0.00     0.012 C 
BRANCH   2   3
ATOM      3  C   UNL     1       2.759  -1.120   1.925  1.00  0.00     0.123 C 
BRANCH   3   4
ATOM      4  C   UNL     1       1.629  -0.143   2.025  1.00  0.00     0.306 C 
ATOM      5  O   UNL     1       1.637   0.741   2.928  1.00  0.00    -0.252 OA
BRANCH   4   6
ATOM      6  O   UNL     1       0.534  -0.276   1.168  1.00  0.00    -0.462 OA
BRANCH   6   7
ATOM      7  C   UNL     1      -0.615   0.571   1.230  1.00  0.00     0.182 C 
ATOM      8  C   UNL     1      -2.605   1.336   0.223  1.00  0.00     0.002 C 
ATOM      9  C   UNL     1      -1.584   2.422  -0.098  1.00  0.00     0.008 C 
ATOM     10  C   UNL     1      -1.771   0.052   0.355  1.00  0.00     0.008 C 
ATOM     11  C   UNL     1      -3.838   1.145  -0.685  1.00  0.00    -0.003 C 
ATOM     12  C   UNL     1      -0.324   1.984   0.675  1.00  0.00     0.046 C 
ATOM     13  C   UNL     1      -1.201  -0.484  -0.999  1.00  0.00     0.015 C 
ATOM     14  C   UNL     1      -2.648  -1.032   1.020  1.00  0.00     0.011 C 
ATOM     15  C   UNL     1      -4.742   0.048  -0.039  1.00  0.00    -0.000 C 
ATOM     16  C   UNL     1      -4.590   2.484  -0.977  1.00  0.00     0.008 C 
ATOM     17  C   UNL     1      -3.957  -1.268   0.223  1.00  0.00     0.005 C 
ATOM     18  C   UNL     1      -5.985  -0.106  -0.946  1.00  0.00     0.019 C 
ATOM     19  C   UNL     1      -6.144   2.495  -0.871  1.00  0.00     0.032 C 
ATOM     20  C   UNL     1      -6.813  -1.410  -0.791  1.00  0.00     0.016 C 
ATOM     21  C   UNL     1      -6.810   1.145  -0.723  1.00  0.00    -0.063 C 
ATOM     22  C   UNL     1      -7.713  -1.389   0.440  1.00  0.00     0.081 C 
ATOM     23  C   UNL     1      -8.017   1.099  -0.124  1.00  0.00     0.046 C 
ATOM     24  C   UNL     1      -8.558  -0.154   0.425  1.00  0.00     0.155 C 
ATOM     25  O   UNL     1      -9.685  -0.154   0.993  1.00  0.00    -0.295 OA
ENDBRANCH   6   7
ENDBRANCH   4   6
ENDBRANCH   3   4
ENDBRANCH   2   3
ENDBRANCH   1   2
BRANCH   1  26
ATOM     26  C   UNL     1       5.416  -2.175   0.529  1.00  0.00     0.000 C 
BRANCH  26  27
ATOM     27  C   UNL     1       5.546  -1.296  -0.732  1.00  0.00     0.000 C 
BRANCH  27  28
ATOM     28  C   UNL     1       6.712  -0.289  -0.706  1.00  0.00    -0.000 C 
BRANCH  28  29
ATOM     29  C   UNL     1       8.088  -0.973  -0.633  1.00  0.00    -0.000 C 
BRANCH  29  30
ATOM     30  C   UNL     1       9.249   0.034  -0.672  1.00  0.00    -0.003 C 
ATOM     31  C   UNL     1       9.490   0.609  -2.068  1.00  0.00     0.004 C 
ENDBRANCH  29  30
ENDBRANCH  28  29
ENDBRANCH  27  28
ENDBRANCH  26  27
ENDBRANCH   1  26
TORSDOF 10
