REMARK SMILES N#Cc1ccccc1-c1cc(-c2ccccn2)cn(-c2ccccc2)c1=O
REMARK SMILES IDX 8 1 7 2 6 3 5 4 4 5 3 6 9 7 27 8 26 9 19 10 18 11 10 12
REMARK SMILES IDX 11 13 20 14 21 15 25 16 22 17 24 18 23 19 12 20 17 21 13 22
REMARK SMILES IDX 16 23 14 24 15 25 2 26 1 27
REMARK H PARENT
REMARK Flexibility Score: inf
ROOT
ATOM      1  C   UNL     1       1.541  -0.247   2.309  1.00  0.00     0.005 A 
ATOM      2  C   UNL     1       1.014   0.148   3.551  1.00  0.00     0.010 A 
ATOM      3  C   UNL     1       1.771   0.016   4.717  1.00  0.00     0.001 A 
ATOM      4  C   UNL     1       3.062  -0.510   4.658  1.00  0.00     0.001 A 
ATOM      5  C   UNL     1       3.603  -0.903   3.431  1.00  0.00     0.020 A 
ATOM      6  C   UNL     1       2.853  -0.775   2.253  1.00  0.00     0.060 A 
ENDROOT
BRANCH   1   7
ATOM      7  C   UNL     1       0.703  -0.107   1.092  1.00  0.00     0.050 A 
ATOM      8  O   UNL     1       0.541   2.183   1.331  1.00  0.00    -0.268 OA
ATOM      9  C   UNL     1       0.224   1.149   0.677  1.00  0.00     0.263 A 
ATOM     10  N   UNL     1      -0.557   1.255  -0.446  1.00  0.00    -0.283 N 
ATOM     11  C   UNL     1      -0.869   0.148  -1.185  1.00  0.00     0.105 A 
ATOM     12  C   UNL     1       0.372  -1.240   0.342  1.00  0.00     0.026 A 
ATOM     13  C   UNL     1      -0.422  -1.127  -0.807  1.00  0.00     0.018 A 
BRANCH  10  14
ATOM     14  C   UNL     1      -1.062   2.537  -0.874  1.00  0.00     0.049 A 
ATOM     15  C   UNL     1      -0.781   3.015  -2.166  1.00  0.00     0.027 A 
ATOM     16  C   UNL     1      -1.855   3.314  -0.012  1.00  0.00     0.027 A 
ATOM     17  C   UNL     1      -1.278   4.253  -2.583  1.00  0.00     0.002 A 
ATOM     18  C   UNL     1      -2.350   4.552  -0.433  1.00  0.00     0.002 A 
ATOM     19  C   UNL     1      -2.061   5.022  -1.717  1.00  0.00     0.000 A 
ENDBRANCH  10  14
BRANCH  13  20
ATOM     20  C   UNL     1      -0.774  -2.313  -1.630  1.00  0.00     0.072 A 
ATOM     21  N   UNL     1      -0.992  -2.157  -2.967  1.00  0.00    -0.256 NA
ATOM     22  C   UNL     1      -0.907  -3.594  -1.062  1.00  0.00     0.029 A 
ATOM     23  C   UNL     1      -1.320  -3.199  -3.776  1.00  0.00     0.111 A 
ATOM     24  C   UNL     1      -1.243  -4.677  -1.878  1.00  0.00     0.004 A 
ATOM     25  C   UNL     1      -1.448  -4.482  -3.244  1.00  0.00     0.020 A 
ENDBRANCH  13  20
ENDBRANCH   1   7
BRANCH   6  26
ATOM     26  C   UNL     1       3.460  -1.157   1.000  1.00  0.00     0.100 C 
ATOM     27  N   UNL     1       3.946  -1.463  -0.004  1.00  0.00    -0.192 NA
ENDBRANCH   6  26
TORSDOF 4
