REMARK SMILES CCCSc1nc(N[C@@H]2C[C@H]2c2ccc(F)c(F)c2)c2nnn([C@@H]3C[C@H](OCCO)[C@@H](O)[C@H]3O)c2n1
REMARK SMILES IDX 24 1 25 2 26 3 31 4 33 5 23 6 5 7 36 8 6 9 35 10 7 11 20 12
REMARK SMILES IDX 21 13 22 14 4 15 3 16 2 17 1 18 8 19 9 21 10 22 11 23 12 24
REMARK SMILES IDX 19 25 13 26 17 27 14 28 18 29 15 30 16 31 34 32 27 34 28 35
REMARK SMILES IDX 29 36 30 37 32 39
REMARK H PARENT 8 20 34 33 30 38 32 40
REMARK Flexibility Score: inf
ROOT
ATOM      1  C   UNL     1      -2.788  -2.298   1.569  1.00  0.00     0.145 C 
ATOM      2  C   UNL     1      -3.373  -1.919   0.195  1.00  0.00     0.065 C 
ATOM      3  C   UNL     1      -4.646  -1.110   0.475  1.00  0.00     0.152 C 
ATOM      4  C   UNL     1      -4.411  -0.474   1.840  1.00  0.00     0.174 C 
ATOM      5  C   UNL     1      -3.599  -1.514   2.623  1.00  0.00     0.170 C 
ENDROOT
BRANCH   1   6
ATOM      6  N   UNL     1      -1.354  -1.994   1.660  1.00  0.00    -0.221 N 
ATOM      7  C   UNL     1      -0.356   1.409   0.910  1.00  0.00     0.191 A 
ATOM      8  N   UNL     1      -1.232   0.377   1.116  1.00  0.00    -0.201 NA
ATOM      9  N   UNL     1       0.996   1.213   1.045  1.00  0.00    -0.203 NA
ATOM     10  C   UNL     1      -0.718  -0.826   1.477  1.00  0.00     0.185 A 
ATOM     11  C   UNL     1       1.507  -0.007   1.396  1.00  0.00     0.161 A 
ATOM     12  C   UNL     1       0.605  -1.041   1.625  1.00  0.00     0.174 A 
ATOM     13  N   UNL     1       0.809  -2.343   1.900  1.00  0.00    -0.124 NA
ATOM     14  N   UNL     1      -0.406  -2.899   1.918  1.00  0.00    -0.064 NA
BRANCH   7  15
ATOM     15  S   UNL     1      -0.982   3.054   0.556  1.00  0.00    -0.086 SA
BRANCH  15  16
ATOM     16  C   UNL     1      -1.005   2.863  -1.276  1.00  0.00     0.078 C 
BRANCH  16  17
ATOM     17  C   UNL     1       0.173   3.582  -1.954  1.00  0.00     0.008 C 
ATOM     18  C   UNL     1       1.520   2.927  -1.655  1.00  0.00     0.005 C 
ENDBRANCH  16  17
ENDBRANCH  15  16
ENDBRANCH   7  15
BRANCH  11  19
ATOM     19  N   UNL     1       2.919  -0.206   1.485  1.00  0.00    -0.365 N 
ATOM     20  H   UNL     1       3.337  -0.544   2.393  1.00  0.00     0.162 HD
BRANCH  19  21
ATOM     21  C   UNL     1       3.795   0.214   0.391  1.00  0.00     0.089 C 
ATOM     22  C   UNL     1       3.549  -0.565  -0.897  1.00  0.00     0.036 C 
ATOM     23  C   UNL     1       4.774  -0.878  -0.040  1.00  0.00     0.044 C 
BRANCH  23  24
ATOM     24  C   UNL     1       6.075  -0.382  -0.617  1.00  0.00    -0.040 A 
ATOM     25  C   UNL     1       6.498  -0.839  -1.876  1.00  0.00     0.046 A 
ATOM     26  C   UNL     1       6.918   0.466   0.130  1.00  0.00     0.007 A 
ATOM     27  C   UNL     1       7.738  -0.437  -2.394  1.00  0.00     0.159 A 
ATOM     28  C   UNL     1       8.162   0.861  -0.391  1.00  0.00     0.043 A 
ATOM     29  F   UNL     1       8.134  -0.876  -3.610  1.00  0.00    -0.204 F 
ATOM     30  C   UNL     1       8.571   0.410  -1.650  1.00  0.00     0.158 A 
ATOM     31  F   UNL     1       9.780   0.795  -2.151  1.00  0.00    -0.204 F 
ENDBRANCH  23  24
ENDBRANCH  19  21
ENDBRANCH  11  19
ENDBRANCH   1   6
BRANCH   5  32
ATOM     32  O   UNL     1      -4.439  -2.373   3.359  1.00  0.00    -0.388 OA
ATOM     33  H   UNL     1      -5.029  -2.858   2.728  1.00  0.00     0.211 HD
ENDBRANCH   5  32
BRANCH   3  34
ATOM     34  O   UNL     1      -4.848  -0.092  -0.495  1.00  0.00    -0.373 OA
BRANCH  34  35
ATOM     35  C   UNL     1      -5.625  -0.564  -1.583  1.00  0.00     0.188 C 
BRANCH  35  36
ATOM     36  C   UNL     1      -7.124  -0.424  -1.290  1.00  0.00     0.184 C 
BRANCH  36  37
ATOM     37  O   UNL     1      -7.428   0.889  -0.896  1.00  0.00    -0.394 OA
ATOM     38  H   UNL     1      -7.417   0.891   0.098  1.00  0.00     0.210 HD
ENDBRANCH  36  37
ENDBRANCH  35  36
ENDBRANCH  34  35
ENDBRANCH   3  34
BRANCH   4  39
ATOM     39  O   UNL     1      -5.634  -0.170   2.464  1.00  0.00    -0.388 OA
ATOM     40  H   UNL     1      -5.405   0.320   3.301  1.00  0.00     0.211 HD
ENDBRANCH   4  39
TORSDOF 13
