REMARK SMILES CN(C)C/C=C/C(=O)Nc1cc2c(Nc3ccc(F)c(Cl)c3)ncnc2cc1O[C@H]1CCOC1
REMARK SMILES IDX 7 1 8 2 9 3 6 5 5 6 4 7 2 8 1 9 3 10 10 11 28 12 11 13 27 14
REMARK SMILES IDX 12 15 26 16 13 17 25 18 23 19 24 20 29 21 30 22 31 23 34 24
REMARK SMILES IDX 32 25 33 26 14 27 15 29 22 30 16 31 20 32 17 33 21 34 18 35
REMARK SMILES IDX 19 36
REMARK H PARENT 9 4 14 28
REMARK Flexibility Score: inf
ROOT
ATOM      1  C   UNL     1       1.517  -0.089   1.269  1.00  0.00     0.248 C 
ATOM      2  O   UNL     1       0.566  -0.641   1.889  1.00  0.00    -0.270 OA
ATOM      3  N   UNL     1       1.247   0.942   0.299  1.00  0.00    -0.319 N 
ATOM      4  H   UNL     1       2.026   1.608   0.073  1.00  0.00     0.170 HD
ENDROOT
BRANCH   1   5
ATOM      5  C   UNL     1       2.915  -0.441   1.584  1.00  0.00     0.068 C 
ATOM      6  C   UNL     1       3.226  -1.453   2.405  1.00  0.00    -0.006 C 
BRANCH   6   7
ATOM      7  C   UNL     1       4.654  -1.802   2.711  1.00  0.00     0.111 C 
BRANCH   7   8
ATOM      8  N   UNL     1       5.385  -2.200   1.487  1.00  0.00    -0.306 NA
ATOM      9  C   UNL     1       6.824  -2.284   1.773  1.00  0.00     0.105 C 
ATOM     10  C   UNL     1       4.905  -3.496   0.977  1.00  0.00     0.105 C 
ENDBRANCH   7   8
ENDBRANCH   6   7
ENDBRANCH   1   5
BRANCH   3  11
ATOM     11  C   UNL     1      -0.043   1.158  -0.306  1.00  0.00     0.085 A 
ATOM     12  C   UNL     1      -0.418   2.459  -0.689  1.00  0.00     0.145 A 
ATOM     13  C   UNL     1      -0.911   0.080  -0.564  1.00  0.00     0.044 A 
ATOM     14  C   UNL     1      -1.680   2.676  -1.273  1.00  0.00     0.077 A 
ATOM     15  C   UNL     1      -2.172   0.295  -1.149  1.00  0.00     0.045 A 
ATOM     16  C   UNL     1      -2.560   1.611  -1.477  1.00  0.00     0.080 A 
ATOM     17  C   UNL     1      -3.093  -0.748  -1.404  1.00  0.00     0.141 A 
ATOM     18  N   UNL     1      -3.793   1.851  -1.995  1.00  0.00    -0.236 NA
ATOM     19  N   UNL     1      -4.316  -0.435  -1.918  1.00  0.00    -0.219 NA
ATOM     20  C   UNL     1      -4.672   0.845  -2.198  1.00  0.00     0.224 A 
BRANCH  12  21
ATOM     21  O   UNL     1       0.484   3.515  -0.457  1.00  0.00    -0.486 OA
BRANCH  21  22
ATOM     22  C   UNL     1       0.277   4.879  -0.854  1.00  0.00     0.201 C 
ATOM     23  C   UNL     1      -0.693   5.578   0.070  1.00  0.00     0.076 C 
ATOM     24  C   UNL     1       1.560   5.660  -0.664  1.00  0.00     0.205 C 
ATOM     25  C   UNL     1       0.190   6.423   0.972  1.00  0.00     0.164 C 
ATOM     26  O   UNL     1       1.540   6.264   0.606  1.00  0.00    -0.377 OA
ENDBRANCH  21  22
ENDBRANCH  12  21
BRANCH  17  27
ATOM     27  N   UNL     1      -2.744  -2.135  -1.212  1.00  0.00    -0.340 N 
ATOM     28  H   UNL     1      -1.752  -2.433  -1.362  1.00  0.00     0.168 HD
BRANCH  27  29
ATOM     29  C   UNL     1      -3.736  -3.175  -1.123  1.00  0.00     0.041 A 
ATOM     30  C   UNL     1      -3.506  -4.412  -1.746  1.00  0.00     0.049 A 
ATOM     31  C   UNL     1      -4.924  -2.981  -0.398  1.00  0.00     0.029 A 
ATOM     32  C   UNL     1      -4.477  -5.418  -1.698  1.00  0.00     0.078 A 
ATOM     33  C   UNL     1      -5.887  -3.991  -0.339  1.00  0.00     0.043 A 
ATOM     34  Cl  UNL     1      -4.189  -6.944  -2.517  1.00  0.00    -0.081 Cl
ATOM     35  C   UNL     1      -5.672  -5.203  -0.999  1.00  0.00     0.141 A 
ATOM     36  F   UNL     1      -6.625  -6.170  -0.954  1.00  0.00    -0.205 F 
ENDBRANCH  27  29
ENDBRANCH  17  27
ENDBRANCH   3  11
TORSDOF 8
