REMARK SMILES C[N+](C)(C)CCCCCC[N+](C)(C)C
REMARK SMILES IDX 7 1 6 2 5 3 2 4 1 5 3 6 4 7 8 8 9 9 10 10 11 11 12 12 13 13
REMARK SMILES IDX 14 14
REMARK H PARENT
REMARK Flexibility Score: inf
ROOT
ATOM      1  C   UNL     1      -0.590  -0.388   0.289  1.00  0.00     0.006 C 
ENDROOT
BRANCH   1   2
ATOM      2  C   UNL     1      -1.927   0.269  -0.076  1.00  0.00     0.061 C 
BRANCH   2   3
ATOM      3  C   UNL     1      -3.109  -0.522   0.533  1.00  0.00     0.263 C 
BRANCH   3   4
ATOM      4  N   UNL     1      -4.466   0.034   0.239  1.00  0.00    -0.331 N 
ATOM      5  C   UNL     1      -5.469  -0.841   0.894  1.00  0.00     0.334 C 
ATOM      6  C   UNL     1      -4.618   1.404   0.785  1.00  0.00     0.334 C 
ATOM      7  C   UNL     1      -4.740   0.046  -1.218  1.00  0.00     0.334 C 
ENDBRANCH   3   4
ENDBRANCH   2   3
ENDBRANCH   1   2
BRANCH   1   8
ATOM      8  C   UNL     1       0.590   0.388  -0.310  1.00  0.00     0.006 C 
BRANCH   8   9
ATOM      9  C   UNL     1       1.927  -0.269   0.054  1.00  0.00     0.061 C 
BRANCH   9  10
ATOM     10  C   UNL     1       3.109   0.522  -0.555  1.00  0.00     0.263 C 
BRANCH  10  11
ATOM     11  N   UNL     1       4.466  -0.034  -0.261  1.00  0.00    -0.331 N 
ATOM     12  C   UNL     1       4.618  -1.405  -0.807  1.00  0.00     0.334 C 
ATOM     13  C   UNL     1       4.740  -0.046   1.197  1.00  0.00     0.334 C 
ATOM     14  C   UNL     1       5.469   0.841  -0.915  1.00  0.00     0.334 C 
ENDBRANCH  10  11
ENDBRANCH   9  10
ENDBRANCH   8   9
ENDBRANCH   1   8
TORSDOF 7
