REMARK SMILES CNC(=O)c1cc(Oc2ccc(NC(=O)Nc3ccc(Cl)c(C(F)(F)F)c3)c(F)c2)ccn1
REMARK SMILES IDX 9 1 30 2 28 3 29 4 12 5 11 6 10 7 8 8 7 9 5 10 6 11 33 12
REMARK SMILES IDX 32 13 31 14 3 15 1 16 2 17 4 19 13 20 14 21 15 23 16 24
REMARK SMILES IDX 17 26 18 27 27 28 19 29 22 30 20 31 21 32 23 33 24 34 25 35
REMARK SMILES IDX 26 36
REMARK H PARENT 2 18 13 22 16 25
REMARK Flexibility Score: inf
ROOT
ATOM      1  C   UNL     1       1.542  -1.584  -1.561  1.00  0.00     0.130 A 
ATOM      2  C   UNL     1       1.836  -1.795  -0.203  1.00  0.00     0.088 A 
ATOM      3  C   UNL     1       0.815  -1.778   0.752  1.00  0.00     0.150 A 
ATOM      4  F   UNL     1       1.124  -1.987   2.058  1.00  0.00    -0.205 F 
ATOM      5  C   UNL     1      -0.514  -1.539   0.366  1.00  0.00     0.079 A 
ATOM      6  C   UNL     1      -0.808  -1.355  -0.997  1.00  0.00     0.033 A 
ATOM      7  C   UNL     1       0.214  -1.383  -1.951  1.00  0.00     0.049 A 
ENDROOT
BRANCH   1   8
ATOM      8  O   UNL     1       2.540  -1.620  -2.546  1.00  0.00    -0.457 OA
BRANCH   8   9
ATOM      9  C   UNL     1       3.857  -1.168  -2.373  1.00  0.00     0.131 A 
ATOM     10  C   UNL     1       5.501   0.326  -1.390  1.00  0.00     0.131 A 
ATOM     11  C   UNL     1       4.170  -0.104  -1.512  1.00  0.00     0.081 A 
ATOM     12  N   UNL     1       6.470  -0.292  -2.121  1.00  0.00    -0.251 NA
ATOM     13  C   UNL     1       6.190  -1.312  -2.974  1.00  0.00     0.116 A 
ATOM     14  C   UNL     1       4.878  -1.766  -3.116  1.00  0.00     0.067 A 
BRANCH  10  15
ATOM     15  C   UNL     1       5.863   1.433  -0.479  1.00  0.00     0.269 C 
ATOM     16  C   UNL     1       7.577   3.068   0.399  1.00  0.00     0.143 C 
ATOM     17  N   UNL     1       7.174   2.018  -0.529  1.00  0.00    -0.354 N 
ATOM     18  H   UNL     1       7.854   1.717  -1.263  1.00  0.00     0.163 HD
ATOM     19  O   UNL     1       5.016   1.866   0.349  1.00  0.00    -0.268 OA
ENDBRANCH  10  15
ENDBRANCH   8   9
ENDBRANCH   1   8
BRANCH   5  20
ATOM     20  N   UNL     1      -1.557  -1.557   1.354  1.00  0.00    -0.305 N 
ATOM     21  C   UNL     1      -2.696  -0.685   1.331  1.00  0.00     0.323 C 
ATOM     22  H   UNL     1      -1.447  -2.195   2.175  1.00  0.00     0.171 HD
ATOM     23  O   UNL     1      -2.719   0.305   0.552  1.00  0.00    -0.248 OA
ATOM     24  N   UNL     1      -3.772  -0.906   2.256  1.00  0.00    -0.308 N 
ATOM     25  H   UNL     1      -3.615  -1.598   3.026  1.00  0.00     0.171 HD
BRANCH  24  26
ATOM     26  C   UNL     1      -5.006  -0.166   2.265  1.00  0.00     0.043 A 
ATOM     27  C   UNL     1      -5.652   0.065   3.486  1.00  0.00     0.028 A 
ATOM     28  C   UNL     1      -5.609   0.278   1.074  1.00  0.00     0.040 A 
ATOM     29  C   UNL     1      -6.865   0.751   3.526  1.00  0.00     0.023 A 
ATOM     30  C   UNL     1      -6.827   0.988   1.102  1.00  0.00     0.076 A 
ATOM     31  C   UNL     1      -7.456   1.217   2.347  1.00  0.00     0.053 A 
ATOM     32  Cl  UNL     1      -8.994   2.068   2.477  1.00  0.00    -0.084 Cl
BRANCH  30  33
ATOM     33  C   UNL     1      -7.460   1.482  -0.182  1.00  0.00     0.417 C 
ATOM     34  F   UNL     1      -7.621   2.855  -0.123  1.00  0.00    -0.166 F 
ATOM     35  F   UNL     1      -6.682   1.187  -1.288  1.00  0.00    -0.166 F 
ATOM     36  F   UNL     1      -8.700   0.888  -0.349  1.00  0.00    -0.166 F 
ENDBRANCH  30  33
ENDBRANCH  24  26
ENDBRANCH   5  20
TORSDOF 6
