REMARK SMILES Clc1ccc2c(c1Cl)CNCC2
REMARK SMILES IDX 1 1 2 2 3 3 4 4 5 5 12 6 11 7 10 8 9 9 6 10 7 11 8 12
REMARK H PARENT 10 13
REMARK Flexibility Score: inf
ROOT
ATOM      1  Cl  UNL     1       3.924   1.753  -1.293  1.00  0.00    -0.083 Cl
ATOM      2  C   UNL     1       2.511   0.833  -0.793  1.00  0.00     0.060 A 
ATOM      3  C   UNL     1       2.581  -0.562  -0.813  1.00  0.00     0.022 A 
ATOM      4  C   UNL     1       1.479  -1.328  -0.439  1.00  0.00     0.006 A 
ATOM      5  C   UNL     1       0.287  -0.710  -0.040  1.00  0.00    -0.041 A 
ATOM      6  C   UNL     1      -0.873  -1.571   0.392  1.00  0.00     0.051 C 
ATOM      7  C   UNL     1      -2.177  -0.777   0.434  1.00  0.00     0.086 C 
ATOM      8  N   UNL     1      -1.966   0.469   1.176  1.00  0.00    -0.312 NA
ATOM      9  C   UNL     1      -1.087   1.372   0.422  1.00  0.00     0.118 C 
ATOM     10  C   UNL     1       0.214   0.701   0.024  1.00  0.00    -0.011 A 
ATOM     11  C   UNL     1       1.327   1.473  -0.383  1.00  0.00     0.064 A 
ATOM     12  Cl  UNL     1       1.243   3.237  -0.400  1.00  0.00    -0.082 Cl
ATOM     13  H   UNL     1      -2.895   0.941   1.280  1.00  0.00     0.123 HD
ENDROOT
TORSDOF 0
