REMARK SMILES CCCS(=O)(=O)Nc1ccc(F)c(C(=O)c2c[nH]c3ncc(-c4ccc(Cl)cc4)cc23)c1F
REMARK SMILES IDX 8 1 32 2 33 3 13 4 11 5 12 6 10 7 9 8 7 9 4 11 5 12 6 13
REMARK SMILES IDX 3 14 2 15 1 16 14 17 15 18 16 19 17 20 31 21 18 22 19 23
REMARK SMILES IDX 30 24 20 26 22 27 21 28 23 29 24 30 29 31 25 32 28 33 26 34
REMARK SMILES IDX 27 35
REMARK H PARENT 7 10 18 25
REMARK Flexibility Score: inf
ROOT
ATOM      1  C   UNL     1       3.148   2.110   0.532  1.00  0.00     0.085 A 
ATOM      2  C   UNL     1       1.957   1.599  -0.014  1.00  0.00     0.161 A 
ATOM      3  F   UNL     1       1.784   1.594  -1.362  1.00  0.00    -0.204 F 
ATOM      4  C   UNL     1       0.965   1.050   0.820  1.00  0.00     0.096 A 
ATOM      5  C   UNL     1       1.158   1.051   2.213  1.00  0.00     0.137 A 
ATOM      6  F   UNL     1       0.197   0.584   3.050  1.00  0.00    -0.206 F 
ATOM      7  C   UNL     1       2.333   1.573   2.757  1.00  0.00     0.042 A 
ATOM      8  C   UNL     1       3.322   2.099   1.926  1.00  0.00     0.033 A 
ENDROOT
BRANCH   1   9
ATOM      9  N   UNL     1       4.157   2.646  -0.343  1.00  0.00    -0.281 N 
ATOM     10  H   UNL     1       3.900   2.895  -1.324  1.00  0.00     0.180 HD
BRANCH   9  11
ATOM     11  S   UNL     1       5.847   2.677   0.050  1.00  0.00     0.232 S 
ATOM     12  O   UNL     1       6.627   3.043  -1.182  1.00  0.00    -0.207 OA
ATOM     13  O   UNL     1       6.096   3.722   1.101  1.00  0.00    -0.207 OA
BRANCH  11  14
ATOM     14  C   UNL     1       6.404   1.079   0.643  1.00  0.00     0.159 C 
BRANCH  14  15
ATOM     15  C   UNL     1       6.504   0.028  -0.472  1.00  0.00     0.015 C 
ATOM     16  C   UNL     1       5.139  -0.424  -0.988  1.00  0.00     0.005 C 
ENDBRANCH  14  15
ENDBRANCH  11  14
ENDBRANCH   9  11
ENDBRANCH   1   9
BRANCH   4  17
ATOM     17  C   UNL     1      -0.278   0.504   0.231  1.00  0.00     0.201 C 
ATOM     18  O   UNL     1      -0.883   1.174  -0.648  1.00  0.00    -0.288 OA
BRANCH  17  19
ATOM     19  C   UNL     1      -0.802  -0.821   0.626  1.00  0.00     0.050 A 
ATOM     20  C   UNL     1      -0.091  -1.845   1.256  1.00  0.00     0.097 A 
ATOM     21  C   UNL     1      -2.069  -1.337   0.405  1.00  0.00     0.030 A 
ATOM     22  N   UNL     1      -0.873  -2.934   1.427  1.00  0.00    -0.345 N 
ATOM     23  C   UNL     1      -2.066  -2.608   0.907  1.00  0.00     0.138 A 
ATOM     24  C   UNL     1      -3.218  -0.801  -0.173  1.00  0.00     0.023 A 
ATOM     25  H   UNL     1      -0.601  -3.842   1.866  1.00  0.00     0.167 HD
ATOM     26  N   UNL     1      -3.159  -3.407   0.862  1.00  0.00    -0.238 NA
ATOM     27  C   UNL     1      -4.373  -1.616  -0.230  1.00  0.00     0.001 A 
ATOM     28  C   UNL     1      -4.310  -2.932   0.302  1.00  0.00     0.122 A 
BRANCH  27  29
ATOM     29  C   UNL     1      -5.628  -1.102  -0.835  1.00  0.00    -0.017 A 
ATOM     30  C   UNL     1      -6.876  -1.399  -0.255  1.00  0.00     0.010 A 
ATOM     31  C   UNL     1      -5.590  -0.309  -1.997  1.00  0.00     0.010 A 
ATOM     32  C   UNL     1      -8.056  -0.913  -0.825  1.00  0.00     0.021 A 
ATOM     33  C   UNL     1      -6.773   0.174  -2.565  1.00  0.00     0.021 A 
ATOM     34  C   UNL     1      -8.006  -0.127  -1.980  1.00  0.00     0.041 A 
ATOM     35  Cl  UNL     1      -9.489   0.480  -2.694  1.00  0.00    -0.084 Cl
ENDBRANCH  27  29
ENDBRANCH  17  19
ENDBRANCH   4  17
TORSDOF 7
