REMARK SMILES Cc1cc(C)cc(NC(=O)Cc2ccc(OC(C)(C)C(=O)O)cc2)c1
REMARK SMILES IDX 12 1 13 2 14 3 15 4 23 5 24 6 11 7 9 8 8 9 10 11 7 12 1 13
REMARK SMILES IDX 2 14 25 15 3 16 4 17 6 18 5 19 16 20 17 21 18 22 19 23 20 24
REMARK SMILES IDX 21 25 22 26
REMARK H PARENT 8 10 22 27
REMARK Flexibility Score: inf
ROOT
ATOM      1  C   UNL     1      -0.835   1.265  -1.251  1.00  0.00    -0.038 A 
ATOM      2  C   UNL     1      -1.584   0.251  -1.867  1.00  0.00     0.008 A 
ATOM      3  C   UNL     1      -2.543  -0.460  -1.139  1.00  0.00     0.047 A 
ATOM      4  C   UNL     1      -2.759  -0.169   0.216  1.00  0.00     0.121 A 
ATOM      5  C   UNL     1      -1.991   0.820   0.840  1.00  0.00     0.047 A 
ATOM      6  C   UNL     1      -1.037   1.537   0.112  1.00  0.00     0.008 A 
ENDROOT
BRANCH   1   7
ATOM      7  C   UNL     1       0.214   2.013  -2.026  1.00  0.00     0.135 C 
BRANCH   7   8
ATOM      8  C   UNL     1       1.543   1.340  -1.869  1.00  0.00     0.228 C 
ATOM      9  N   UNL     1       2.339   1.590  -0.700  1.00  0.00    -0.326 N 
ATOM     10  H   UNL     1       2.119   2.441  -0.136  1.00  0.00     0.169 HD
ATOM     11  O   UNL     1       1.952   0.558  -2.771  1.00  0.00    -0.274 OA
BRANCH   9  12
ATOM     12  C   UNL     1       3.468   0.792  -0.304  1.00  0.00     0.041 A 
ATOM     13  C   UNL     1       6.717   1.301   1.614  1.00  0.00     0.044 C 
ATOM     14  C   UNL     1       5.619   0.642   0.832  1.00  0.00    -0.049 A 
ATOM     15  C   UNL     1       4.523   1.398   0.394  1.00  0.00     0.029 A 
ATOM     16  C   UNL     1       5.644  -0.740   0.593  1.00  0.00     0.007 A 
ATOM     17  C   UNL     1       4.597  -1.360  -0.104  1.00  0.00    -0.049 A 
ATOM     18  C   UNL     1       3.501  -0.595  -0.530  1.00  0.00     0.029 A 
ATOM     19  C   UNL     1       4.606  -2.846  -0.311  1.00  0.00     0.044 C 
ENDBRANCH   9  12
ENDBRANCH   7   8
ENDBRANCH   1   7
BRANCH   4  20
ATOM     20  O   UNL     1      -3.714  -0.867   0.968  1.00  0.00    -0.476 OA
BRANCH  20  21
ATOM     21  C   UNL     1      -5.133  -0.730   0.798  1.00  0.00     0.199 C 
ATOM     22  C   UNL     1      -5.817  -1.522   1.920  1.00  0.00     0.069 C 
ATOM     23  C   UNL     1      -5.533   0.755   0.926  1.00  0.00     0.069 C 
BRANCH  21  24
ATOM     24  C   UNL     1      -5.560  -1.314  -0.532  1.00  0.00     0.347 C 
ATOM     25  O   UNL     1      -6.125  -0.600  -1.408  1.00  0.00    -0.248 OA
BRANCH  24  26
ATOM     26  O   UNL     1      -5.315  -2.659  -0.801  1.00  0.00    -0.478 OA
ATOM     27  H   UNL     1      -5.588  -3.069  -1.686  1.00  0.00     0.296 HD
ENDBRANCH  24  26
ENDBRANCH  21  24
ENDBRANCH  20  21
ENDBRANCH   4  20
TORSDOF 7
