REMARK SMILES NCCc1c[nH]c2ccc(O)cc12
REMARK SMILES IDX 3 1 2 2 1 3 4 6 5 7 13 8 6 9 7 10 12 11 8 13 10 14 9 15
REMARK SMILES IDX 11 16
REMARK H PARENT 1 4 1 5 6 12 11 17
REMARK Flexibility Score: inf
ROOT
ATOM      1  C   UNL     1      -1.956   0.032  -0.750  1.00  0.00     0.053 C 
ENDROOT
BRANCH   1   2
ATOM      2  C   UNL     1      -2.568   0.530   0.565  1.00  0.00     0.082 C 
BRANCH   2   3
ATOM      3  N   UNL     1      -3.803   1.274   0.327  1.00  0.00    -0.330 NA
ATOM      4  H   UNL     1      -4.481   0.652  -0.171  1.00  0.00     0.118 HD
ATOM      5  H   UNL     1      -3.594   2.084  -0.300  1.00  0.00     0.118 HD
ENDBRANCH   2   3
ENDBRANCH   1   2
BRANCH   1   6
ATOM      6  C   UNL     1      -0.691  -0.729  -0.487  1.00  0.00    -0.021 A 
ATOM      7  C   UNL     1      -0.570  -2.104  -0.316  1.00  0.00     0.087 A 
ATOM      8  C   UNL     1       0.571  -0.212  -0.267  1.00  0.00     0.006 A 
ATOM      9  N   UNL     1       0.709  -2.433  -0.024  1.00  0.00    -0.361 N 
ATOM     10  C   UNL     1       1.393  -1.276   0.005  1.00  0.00     0.046 A 
ATOM     11  C   UNL     1       1.044   1.100  -0.273  1.00  0.00     0.056 A 
ATOM     12  H   UNL     1       1.082  -3.391   0.158  1.00  0.00     0.166 HD
ATOM     13  C   UNL     1       2.747  -1.102   0.284  1.00  0.00     0.030 A 
ATOM     14  C   UNL     1       2.409   1.310   0.004  1.00  0.00     0.116 A 
ATOM     15  C   UNL     1       3.256   0.209   0.280  1.00  0.00     0.048 A 
BRANCH  14  16
ATOM     16  O   UNL     1       2.914   2.608   0.003  1.00  0.00    -0.508 OA
ATOM     17  H   UNL     1       3.890   2.796   0.199  1.00  0.00     0.293 HD
ENDBRANCH  14  16
ENDBRANCH   1   6
TORSDOF 4
