REMARK SMILES Cc1ccc(Sc2ccccc2N2CCNCC2)c(C)c1
REMARK SMILES IDX 7 1 8 2 9 3 10 4 11 5 12 6 6 7 5 8 1 9 2 10 3 11 21 12 4 13
REMARK SMILES IDX 19 14 20 15 13 16 14 17 18 18 15 19 17 20 16 21
REMARK H PARENT 16 22
REMARK Flexibility Score: inf
ROOT
ATOM      1  C   UNL     1       0.222   0.336   1.297  1.00  0.00     0.036 A 
ATOM      2  C   UNL     1      -0.590   0.003   2.393  1.00  0.00     0.017 A 
ATOM      3  C   UNL     1      -0.223  -1.033   3.255  1.00  0.00     0.001 A 
ATOM      4  C   UNL     1       0.967  -1.731   3.043  1.00  0.00     0.002 A 
ATOM      5  C   UNL     1       1.800  -1.385   1.977  1.00  0.00     0.027 A 
ATOM      6  C   UNL     1       1.438  -0.351   1.101  1.00  0.00     0.051 A 
ENDROOT
BRANCH   1   7
ATOM      7  S   UNL     1      -0.274   1.659   0.180  1.00  0.00    -0.088 SA
BRANCH   7   8
ATOM      8  C   UNL     1      -1.741   0.799  -0.429  1.00  0.00     0.015 A 
ATOM      9  C   UNL     1      -5.195  -1.337  -1.887  1.00  0.00     0.044 C 
ATOM     10  C   UNL     1      -3.996  -0.574  -1.406  1.00  0.00    -0.051 A 
ATOM     11  C   UNL     1      -2.706  -0.998  -1.749  1.00  0.00     0.004 A 
ATOM     12  C   UNL     1      -4.156   0.533  -0.560  1.00  0.00     0.008 A 
ATOM     13  C   UNL     1      -1.589  -0.309  -1.274  1.00  0.00     0.016 A 
ATOM     14  C   UNL     1      -3.038   1.230  -0.070  1.00  0.00    -0.037 A 
ATOM     15  C   UNL     1      -3.245   2.463   0.769  1.00  0.00     0.045 C 
ENDBRANCH   7   8
ENDBRANCH   1   7
BRANCH   6  16
ATOM     16  N   UNL     1       2.371   0.066   0.094  1.00  0.00    -0.368 N 
ATOM     17  C   UNL     1       3.521   0.894   0.469  1.00  0.00     0.132 C 
ATOM     18  C   UNL     1       2.250  -0.428  -1.281  1.00  0.00     0.132 C 
ATOM     19  C   UNL     1       4.843   0.237   0.016  1.00  0.00     0.102 C 
ATOM     20  C   UNL     1       3.606  -0.377  -1.990  1.00  0.00     0.102 C 
ATOM     21  N   UNL     1       4.659  -0.769  -1.048  1.00  0.00    -0.313 NA
ATOM     22  H   UNL     1       5.558  -0.851  -1.578  1.00  0.00     0.122 HD
ENDBRANCH   6  16
TORSDOF 3
