REMARK SMILES CCN1CCN(C)C[C@@H](NC(=O)c2cc(Br)c(NC)cc2OC)C1
REMARK SMILES IDX 9 1 10 2 11 3 12 4 13 6 17 7 15 8 20 9 16 10 14 11 21 12
REMARK SMILES IDX 18 13 19 14 22 16 23 17 8 18 6 19 7 20 5 21 24 23 3 24 4 25
REMARK SMILES IDX 2 27 1 28
REMARK H PARENT 10 5 18 15
REMARK Flexibility Score: 90.00
ROOT
ATOM      1  C   UNL     1      -1.494   0.103   0.122  1.00  0.00     0.110 C 
ENDROOT
BRANCH   1   2
ATOM      2  N   UNL     1      -0.113   0.583   0.017  1.00  0.00    -0.347 N 
ATOM      3  C   UNL     1       0.695   0.879   1.167  1.00  0.00     0.255 C 
ATOM      4  O   UNL     1       0.146   1.166   2.266  1.00  0.00    -0.269 OA
ATOM      5  H   UNL     1       0.340   0.572  -0.925  1.00  0.00     0.164 HD
BRANCH   3   6
ATOM      6  C   UNL     1       2.172   0.893   1.069  1.00  0.00     0.083 A 
ATOM      7  C   UNL     1       4.994   0.988   0.906  1.00  0.00     0.052 A 
ATOM      8  C   UNL     1       4.288   1.933   1.681  1.00  0.00     0.042 A 
ATOM      9  C   UNL     1       4.267  -0.014   0.233  1.00  0.00     0.074 A 
ATOM     10  Br  UNL     1       5.170   3.335   2.651  1.00  0.00    -0.049 Br
ATOM     11  C   UNL     1       2.894   1.876   1.759  1.00  0.00     0.035 A 
ATOM     12  C   UNL     1       2.863  -0.078   0.318  1.00  0.00     0.133 A 
BRANCH   7  13
ATOM     13  N   UNL     1       6.435   1.046   0.814  1.00  0.00    -0.387 N 
ATOM     14  C   UNL     1       7.234   0.109   0.028  1.00  0.00     0.139 C 
ATOM     15  H   UNL     1       6.962   1.787   1.325  1.00  0.00     0.160 HD
ENDBRANCH   7  13
BRANCH  12  16
ATOM     16  O   UNL     1       2.134  -1.105  -0.307  1.00  0.00    -0.496 OA
ATOM     17  C   UNL     1       2.704  -2.161  -1.073  1.00  0.00     0.278 C 
ENDBRANCH  12  16
ENDBRANCH   3   6
ENDBRANCH   1   2
BRANCH   1  18
ATOM     18  C   UNL     1      -1.497  -1.424  -0.093  1.00  0.00     0.110 C 
BRANCH  18  19
ATOM     19  N   UNL     1      -2.767  -2.050   0.326  1.00  0.00    -0.303 NA
ATOM     20  C   UNL     1      -2.648  -3.515   0.222  1.00  0.00     0.105 C 
BRANCH  19  21
ATOM     21  C   UNL     1      -3.913  -1.576  -0.478  1.00  0.00     0.099 CG0
ATOM     22  G   UNL     1      -4.417  -0.227   0.063  1.00  0.00     0.000 G0
ENDBRANCH  19  21
ENDBRANCH  18  19
ENDBRANCH   1  18
BRANCH   1  23
ATOM     23  C   UNL     1      -2.361   0.822  -0.940  1.00  0.00     0.110 C 
BRANCH  23  24
ATOM     24  N   UNL     1      -3.791   0.966  -0.566  1.00  0.00    -0.300 NA
BRANCH  24  25
ATOM     25  C   UNL     1      -4.417  -0.227   0.063  1.00  0.00     0.100 CG0
ATOM     26  G   UNL     1      -3.913  -1.576  -0.478  1.00  0.00     0.000 G0
ENDBRANCH  24  25
BRANCH  24  27
ATOM     27  C   UNL     1      -4.015   2.185   0.248  1.00  0.00     0.081 C 
ATOM     28  C   UNL     1      -5.491   2.584   0.271  1.00  0.00     0.021 C 
ENDBRANCH  24  27
ENDBRANCH  23  24
ENDBRANCH   1  23
TORSDOF 5
