REMARK SMILES NC(=O)[C@@H]1CCCN1C(=O)[C@H](Cc1cnc[nH]1)NC(=O)[C@@H]1CCC(=O)N1
REMARK SMILES IDX 11 1 12 2 13 3 14 4 17 5 15 6 16 7 18 9 19 10 20 12 21 13
REMARK SMILES IDX 22 14 26 15 23 16 24 17 25 19 9 20 10 21 8 22 7 23 4 24 6 25
REMARK SMILES IDX 5 26 2 27 1 28 3 29
REMARK H PARENT 17 8 18 11 26 18 1 30 1 31
REMARK Flexibility Score: inf
ROOT
ATOM      1  C   UNL     1       0.041   1.071   0.409  1.00  0.00     0.177 C 
ENDROOT
BRANCH   1   2
ATOM      2  C   UNL     1       0.458   2.392  -0.270  1.00  0.00     0.090 C 
BRANCH   2   3
ATOM      3  C   UNL     1      -0.724   3.291  -0.492  1.00  0.00     0.037 A 
ATOM      4  C   UNL     1      -1.398   3.486  -1.677  1.00  0.00     0.134 A 
ATOM      5  N   UNL     1      -1.342   3.989   0.473  1.00  0.00    -0.348 N 
ATOM      6  N   UNL     1      -2.438   4.316  -1.461  1.00  0.00    -0.245 NA
ATOM      7  C   UNL     1      -2.371   4.601  -0.143  1.00  0.00     0.196 A 
ATOM      8  H   UNL     1      -1.090   4.039   1.485  1.00  0.00     0.167 HD
ENDBRANCH   2   3
ENDBRANCH   1   2
BRANCH   1   9
ATOM      9  N   UNL     1       1.223   0.323   0.849  1.00  0.00    -0.342 N 
ATOM     10  C   UNL     1       2.182  -0.271  -0.041  1.00  0.00     0.243 C 
ATOM     11  H   UNL     1       1.365   0.207   1.878  1.00  0.00     0.164 HD
ATOM     12  O   UNL     1       2.067  -0.135  -1.289  1.00  0.00    -0.273 OA
BRANCH  10  13
ATOM     13  C   UNL     1       3.364  -1.015   0.520  1.00  0.00     0.171 C 
ATOM     14  C   UNL     1       4.632  -0.125   0.563  1.00  0.00     0.045 C 
ATOM     15  N   UNL     1       3.698  -2.149  -0.321  1.00  0.00    -0.344 N 
ATOM     16  C   UNL     1       5.727  -0.853  -0.235  1.00  0.00     0.102 C 
ATOM     17  C   UNL     1       5.041  -2.059  -0.736  1.00  0.00     0.220 C 
ATOM     18  H   UNL     1       3.059  -2.948  -0.533  1.00  0.00     0.164 HD
ATOM     19  O   UNL     1       5.590  -2.931  -1.459  1.00  0.00    -0.275 OA
ENDBRANCH  10  13
ENDBRANCH   1   9
BRANCH   1  20
ATOM     20  C   UNL     1      -0.842   0.197  -0.460  1.00  0.00     0.246 C 
ATOM     21  O   UNL     1      -0.798   0.316  -1.715  1.00  0.00    -0.272 OA
BRANCH  20  22
ATOM     22  N   UNL     1      -1.695  -0.809   0.121  1.00  0.00    -0.329 N 
ATOM     23  C   UNL     1      -1.717  -1.146   1.537  1.00  0.00     0.120 C 
ATOM     24  C   UNL     1      -2.556  -1.673  -0.675  1.00  0.00     0.174 C 
ATOM     25  C   UNL     1      -2.763  -2.244   1.685  1.00  0.00     0.024 C 
ATOM     26  C   UNL     1      -3.007  -2.781   0.277  1.00  0.00     0.037 C 
BRANCH  24  27
ATOM     27  C   UNL     1      -3.732  -0.895  -1.207  1.00  0.00     0.240 C 
ATOM     28  N   UNL     1      -4.204  -1.121  -2.535  1.00  0.00    -0.368 N 
ATOM     29  O   UNL     1      -4.329  -0.067  -0.467  1.00  0.00    -0.273 OA
ATOM     30  H   UNL     1      -5.025  -0.589  -2.899  1.00  0.00     0.159 HD
ATOM     31  H   UNL     1      -3.740  -1.821  -3.155  1.00  0.00     0.159 HD
ENDBRANCH  24  27
ENDBRANCH  20  22
ENDBRANCH   1  20
TORSDOF 7
