REMARK SMILES CCOC(=O)N[C@@H]1CC[C@@H]2[C@@H](C1)C[C@H]1C(=O)O[C@H](C)[C@H]1[C@H]2/C=C/c1ccc(-c2cccc(F)c2)cn1
REMARK SMILES IDX 14 1 13 2 11 3 12 4 7 5 8 6 9 7 10 8 21 9 20 10 18 11 19 12
REMARK SMILES IDX 17 13 15 14 16 15 22 16 23 17 24 18 25 19 36 20 26 21 35 22
REMARK SMILES IDX 27 23 28 24 34 25 29 26 32 27 30 28 33 29 31 30 6 31 4 32
REMARK SMILES IDX 5 34 3 35 2 36 1 37
REMARK H PARENT 6 33
REMARK Flexibility Score: inf
ROOT
ATOM      1  C   UNL     1       1.473  -3.880  -1.288  1.00  0.00     0.107 C 
ATOM      2  C   UNL     1       2.533  -3.218  -0.387  1.00  0.00     0.019 C 
ATOM      3  C   UNL     1       2.718  -1.731  -0.705  1.00  0.00    -0.005 C 
ATOM      4  C   UNL     1       3.842  -1.146   0.174  1.00  0.00     0.029 C 
ATOM      5  C   UNL     1       4.025   0.356  -0.088  1.00  0.00     0.085 C 
ATOM      6  C   UNL     1       2.708   1.102   0.164  1.00  0.00     0.025 C 
ATOM      7  C   UNL     1       1.584   0.537  -0.710  1.00  0.00     0.006 C 
ATOM      8  C   UNL     1       1.383  -0.982  -0.474  1.00  0.00    -0.000 C 
ATOM      9  C   UNL     1       0.292  -1.554  -1.423  1.00  0.00     0.023 C 
ATOM     10  C   UNL     1       0.132  -3.106  -1.361  1.00  0.00     0.051 C 
ATOM     11  C   UNL     1      -0.736  -3.716  -0.219  1.00  0.00     0.178 C 
ATOM     12  C   UNL     1      -2.211  -3.888  -0.597  1.00  0.00     0.053 C 
ATOM     13  O   UNL     1      -0.176  -5.001   0.004  1.00  0.00    -0.462 OA
ATOM     14  C   UNL     1       1.036  -5.135  -0.635  1.00  0.00     0.309 C 
ATOM     15  O   UNL     1       1.709  -6.199  -0.614  1.00  0.00    -0.252 OA
ENDROOT
BRANCH   9  16
ATOM     16  C   UNL     1      -1.037  -0.829  -1.334  1.00  0.00    -0.021 C 
ATOM     17  C   UNL     1      -1.649  -0.545  -0.173  1.00  0.00     0.024 C 
BRANCH  17  18
ATOM     18  C   UNL     1      -2.943   0.164  -0.073  1.00  0.00     0.063 A 
ATOM     19  C   UNL     1      -3.850   0.251  -1.143  1.00  0.00     0.029 A 
ATOM     20  N   UNL     1      -3.279   0.716   1.124  1.00  0.00    -0.256 NA
ATOM     21  C   UNL     1      -5.063   0.920  -0.965  1.00  0.00     0.012 A 
ATOM     22  C   UNL     1      -4.455   1.368   1.322  1.00  0.00     0.120 A 
ATOM     23  C   UNL     1      -5.382   1.492   0.276  1.00  0.00     0.000 A 
BRANCH  23  24
ATOM     24  C   UNL     1      -6.673   2.199   0.478  1.00  0.00    -0.014 A 
ATOM     25  C   UNL     1      -7.195   3.036  -0.527  1.00  0.00     0.048 A 
ATOM     26  C   UNL     1      -7.396   2.041   1.675  1.00  0.00     0.009 A 
ATOM     27  C   UNL     1      -8.412   3.698  -0.336  1.00  0.00     0.123 A 
ATOM     28  C   UNL     1      -8.613   2.704   1.860  1.00  0.00     0.004 A 
ATOM     29  F   UNL     1      -8.904   4.505  -1.308  1.00  0.00    -0.207 F 
ATOM     30  C   UNL     1      -9.121   3.532   0.856  1.00  0.00     0.039 A 
ENDBRANCH  23  24
ENDBRANCH  17  18
ENDBRANCH   9  16
BRANCH   5  31
ATOM     31  N   UNL     1       5.072   0.892   0.786  1.00  0.00    -0.319 N 
ATOM     32  C   UNL     1       5.959   1.941   0.379  1.00  0.00     0.407 C 
ATOM     33  H   UNL     1       5.083   0.610   1.792  1.00  0.00     0.167 HD
ATOM     34  O   UNL     1       5.925   2.384  -0.803  1.00  0.00    -0.225 OA
BRANCH  32  35
ATOM     35  O   UNL     1       6.857   2.473   1.310  1.00  0.00    -0.450 OA
BRANCH  35  36
ATOM     36  C   UNL     1       7.824   3.471   0.987  1.00  0.00     0.231 C 
ATOM     37  C   UNL     1       8.999   2.858   0.236  1.00  0.00     0.049 C 
ENDBRANCH  35  36
ENDBRANCH  32  35
ENDBRANCH   5  31
TORSDOF 6
