REMARK SMILES C[C@]12CCC3=C4CCC(=O)C=C4CC[C@H]3[C@@H]1CC[C@@]2(O)CC#N
REMARK SMILES IDX 16 1 17 2 18 3 19 4 2 5 1 6 3 7 4 8 5 9 6 10 7 11 8 12 9 13
REMARK SMILES IDX 10 14 11 15 12 16 13 17 14 18 15 19 20 20 21 22 22 23 23 24
REMARK H PARENT 20 21
REMARK Flexibility Score: inf
ROOT
ATOM      1  C   UNL     1       0.942  -0.588  -0.708  1.00  0.00     0.005 C 
ATOM      2  C   UNL     1       1.838  -1.206  -1.770  1.00  0.00     0.008 C 
ATOM      3  C   UNL     1       3.246  -0.676  -1.449  1.00  0.00     0.037 C 
ATOM      4  C   UNL     1       3.184   0.063  -0.077  1.00  0.00     0.083 C 
ATOM      5  C   UNL     1       1.840  -0.479   0.544  1.00  0.00     0.001 C 
ATOM      6  C   UNL     1       2.124  -1.870   1.212  1.00  0.00     0.015 C 
ATOM      7  C   UNL     1       1.109   0.428   1.572  1.00  0.00     0.014 C 
ATOM      8  C   UNL     1      -0.308  -0.098   1.915  1.00  0.00     0.032 C 
ATOM      9  C   UNL     1      -1.118  -0.369   0.645  1.00  0.00    -0.063 C 
ATOM     10  C   UNL     1      -2.310   0.245   0.400  1.00  0.00    -0.045 C 
ATOM     11  C   UNL     1      -3.053   1.015   1.481  1.00  0.00     0.044 C 
ATOM     12  C   UNL     1      -4.560   1.100   1.213  1.00  0.00     0.085 C 
ATOM     13  C   UNL     1      -4.834   1.479  -0.208  1.00  0.00     0.156 C 
ATOM     14  O   UNL     1      -5.840   2.181  -0.493  1.00  0.00    -0.295 OA
ATOM     15  C   UNL     1      -3.981   0.951  -1.278  1.00  0.00     0.051 C 
ATOM     16  C   UNL     1      -2.833   0.314  -1.000  1.00  0.00    -0.041 C 
ATOM     17  C   UNL     1      -1.992  -0.210  -2.128  1.00  0.00     0.036 C 
ATOM     18  C   UNL     1      -1.282  -1.477  -1.675  1.00  0.00     0.013 C 
ATOM     19  C   UNL     1      -0.427  -1.242  -0.410  1.00  0.00     0.019 C 
ENDROOT
BRANCH   4  20
ATOM     20  O   UNL     1       4.316  -0.315   0.678  1.00  0.00    -0.388 OA
ATOM     21  H   UNL     1       4.193   0.024   1.602  1.00  0.00     0.211 HD
ENDBRANCH   4  20
BRANCH   4  22
ATOM     22  C   UNL     1       3.236   1.605  -0.332  1.00  0.00     0.155 C 
BRANCH  22  23
ATOM     23  C   UNL     1       3.415   2.398   0.894  1.00  0.00     0.065 C 
ATOM     24  N   UNL     1       3.556   3.023   1.858  1.00  0.00    -0.198 NA
ENDBRANCH  22  23
ENDBRANCH   4  22
TORSDOF 3
