REMARK SMILES CN(C)CCOC1=Cc2ccccc2Sc2ccc(Cl)cc21
REMARK SMILES IDX 7 1 6 3 5 4 4 5 2 6 1 7 3 8 22 9 16 10 21 11 17 12 19 13
REMARK SMILES IDX 18 14 20 15 15 16 14 17 9 18 13 19 10 20 12 21 11 22 8 23
REMARK H PARENT
REMARK Flexibility Score: 30.00
ROOT
ATOM      1  C   UNL     1      -0.342  -0.232   0.036  1.00  0.00     0.128 CG0
ATOM      2  G   UNL     1      -0.916   0.964  -0.246  1.00  0.00     0.000 G0
ENDROOT
BRANCH   1   3
ATOM      3  O   UNL     1       1.056  -0.384   0.067  1.00  0.00    -0.492 OA
BRANCH   3   4
ATOM      4  C   UNL     1       2.006   0.660  -0.136  1.00  0.00     0.245 C 
BRANCH   4   5
ATOM      5  C   UNL     1       3.418   0.092   0.006  1.00  0.00     0.125 C 
BRANCH   5   6
ATOM      6  N   UNL     1       4.433   1.101  -0.367  1.00  0.00    -0.306 NA
ATOM      7  C   UNL     1       4.701   2.022   0.752  1.00  0.00     0.105 C 
ATOM      8  C   UNL     1       5.686   0.438  -0.763  1.00  0.00     0.105 C 
ENDBRANCH   5   6
ENDBRANCH   4   5
ENDBRANCH   3   4
ENDBRANCH   1   3
BRANCH   1   9
ATOM      9  C   UNL     1      -1.139  -1.466   0.267  1.00  0.00     0.032 A 
ATOM     10  C   UNL     1      -2.238  -1.502   1.151  1.00  0.00     0.023 A 
ATOM     11  C   UNL     1      -0.774  -2.641  -0.413  1.00  0.00     0.033 A 
ATOM     12  C   UNL     1      -2.987  -2.675   1.296  1.00  0.00     0.018 A 
ATOM     13  C   UNL     1      -1.517  -3.815  -0.251  1.00  0.00     0.041 A 
ATOM     14  C   UNL     1      -2.627  -3.829   0.597  1.00  0.00     0.022 A 
ATOM     15  Cl  UNL     1      -1.061  -5.269  -1.121  1.00  0.00    -0.084 Cl
BRANCH  10  16
ATOM     16  S   UNL     1      -2.692  -0.055   2.101  1.00  0.00    -0.089 SA
BRANCH  16  17
ATOM     17  C   UNL     1      -3.285   0.748   0.616  1.00  0.00     0.020 A 
ATOM     18  C   UNL     1      -2.376   1.194  -0.365  1.00  0.00    -0.008 A 
ATOM     19  C   UNL     1      -4.660   0.941   0.440  1.00  0.00     0.016 A 
ATOM     20  C   UNL     1      -2.862   1.896  -1.478  1.00  0.00     0.009 A 
ATOM     21  C   UNL     1      -5.134   1.616  -0.687  1.00  0.00     0.001 A 
ATOM     22  C   UNL     1      -4.236   2.101  -1.641  1.00  0.00     0.001 A 
BRANCH  18  23
ATOM     23  C   UNL     1      -0.916   0.964  -0.246  1.00  0.00     0.056 CG0
ATOM     24  G   UNL     1      -0.342  -0.232   0.036  1.00  0.00     0.000 G0
ENDBRANCH  18  23
ENDBRANCH  16  17
ENDBRANCH  10  16
ENDBRANCH   1   9
TORSDOF 4
