REMARK SMILES Cc1nnc2n1-c1sc(Br)cc1C(c1ccccc1Cl)=NC2
REMARK SMILES IDX 1 1 2 2 3 3 4 4 5 5 22 6 21 7 13 8 12 9 7 10 8 11 9 12 10 13
REMARK SMILES IDX 11 14 6 15 14 16 15 17 19 18 16 19 18 20 20 21 17 22
REMARK H PARENT
REMARK Flexibility Score: inf
ROOT
ATOM      1  C   UNL     1      -4.079  -1.514   0.986  1.00  0.00     0.090 C 
ATOM      2  C   UNL     1      -3.552  -0.144   0.703  1.00  0.00     0.135 A 
ATOM      3  N   UNL     1      -4.149   0.983   1.142  1.00  0.00    -0.135 NA
ATOM      4  N   UNL     1      -3.419   2.003   0.713  1.00  0.00    -0.133 NA
ATOM      5  C   UNL     1      -2.385   1.480   0.027  1.00  0.00     0.160 A 
ATOM      6  C   UNL     1      -1.367   2.286  -0.711  1.00  0.00     0.220 C 
ATOM      7  N   UNL     1      -0.017   1.922  -0.290  1.00  0.00    -0.276 NA
ATOM      8  C   UNL     1       0.549   0.752  -0.408  1.00  0.00     0.077 C 
ATOM      9  C   UNL     1      -0.176  -0.440  -0.932  1.00  0.00     0.037 A 
ATOM     10  C   UNL     1      -1.522  -0.727  -0.688  1.00  0.00     0.113 A 
ATOM     11  S   UNL     1      -1.908  -2.220  -1.366  1.00  0.00    -0.110 S 
ATOM     12  C   UNL     1      -0.370  -2.526  -1.966  1.00  0.00     0.073 A 
ATOM     13  Br  UNL     1       0.137  -4.095  -2.922  1.00  0.00    -0.039 Br
ATOM     14  C   UNL     1       0.467  -1.467  -1.646  1.00  0.00     0.040 A 
ATOM     15  N   UNL     1      -2.441   0.140  -0.009  1.00  0.00    -0.272 N 
ENDROOT
BRANCH   8  16
ATOM     16  C   UNL     1       1.954   0.605   0.043  1.00  0.00     0.019 A 
ATOM     17  C   UNL     1       2.294  -0.466   0.890  1.00  0.00     0.012 A 
ATOM     18  C   UNL     1       2.960   1.519  -0.347  1.00  0.00     0.050 A 
ATOM     19  C   UNL     1       3.606  -0.623   1.344  1.00  0.00     0.001 A 
ATOM     20  C   UNL     1       4.272   1.351   0.116  1.00  0.00     0.021 A 
ATOM     21  Cl  UNL     1       2.638   2.847  -1.457  1.00  0.00    -0.084 Cl
ATOM     22  C   UNL     1       4.593   0.285   0.959  1.00  0.00     0.002 A 
ENDBRANCH   8  16
TORSDOF 1
