REMARK SMILES C[C@H](N)C(=O)NCC(=O)N[C@H]1CSSC[C@@H](C(=O)O)NC(=O)[C@H](CO)NC(=O)[C@H]([C@@H](C)O)NC(=O)[C@H](Cc2ccccc2)NC(=O)[C@H]([C@@H](C)O)NC(=O)[C@H](CCCCN)NC(=O)[C@H](Cc2c[nH]c3ccccc23)NC(=O)[C@H](Cc2ccccc2)NC(=O)[C@H](Cc2ccccc2)NC(=O)[C@H](CC(N)=O)NC(=O)[C@H](CCCCN)NC1=O
REMARK SMILES IDX 29 1 33 2 34 3 35 4 36 5 44 6 45 7 46 8 47 9 51 10 52 11
REMARK SMILES IDX 53 12 54 13 60 14 61 15 62 16 63 17 74 18 75 19 76 20 77 21
REMARK SMILES IDX 85 22 86 23 87 24 88 25 96 26 97 27 98 28 99 29 104 30
REMARK SMILES IDX 105 31 106 32 107 33 113 34 114 35 115 36 11 37 12 38 13 39
REMARK SMILES IDX 14 40 15 41 16 42 20 43 21 44 22 45 23 46 26 47 27 48 28 49
REMARK SMILES IDX 30 61 31 62 32 63 37 65 38 66 39 67 43 68 40 69 42 70 41 71
REMARK SMILES IDX 24 72 25 73 48 75 49 76 50 77 17 79 18 80 19 81 55 83 56 84
REMARK SMILES IDX 57 85 58 86 59 87 10 90 8 91 9 93 7 94 6 95 4 96 5 98 2 99
REMARK SMILES IDX 1 100 3 101 64 104 65 105 66 106 73 107 67 108 68 109 72 110
REMARK SMILES IDX 69 112 71 113 70 114 108 115 109 116 110 117 111 118 112 119
REMARK SMILES IDX 78 122 79 123 80 124 84 125 81 126 83 127 82 128 100 129
REMARK SMILES IDX 101 130 102 131 103 132 89 135 90 136 91 137 95 138 92 139
REMARK SMILES IDX 94 140 93 141
REMARK H PARENT 33 50 44 51 51 52 60 53 74 54 85 55 96 56 104 57 113 58 20 59
REMARK H PARENT 26 60 32 64 25 74 50 78 19 82 59 88 59 89 10 92 6 97 3 102
REMARK H PARENT 3 103 67 111 112 120 112 121 102 133 102 134
REMARK Flexibility Score: inf
ROOT
ATOM      1  C   UNL     1      -3.491   7.824   0.099  1.00  0.00     0.200 C 
ATOM      2  N   UNL     1      -4.583   6.844   0.139  1.00  0.00    -0.340 N 
ATOM      3  C   UNL     1      -4.449   5.527  -0.423  1.00  0.00     0.243 C 
ATOM      4  O   UNL     1      -3.348   5.178  -0.936  1.00  0.00    -0.273 OA
ATOM      5  C   UNL     1      -5.574   4.512  -0.338  1.00  0.00     0.175 C 
ATOM      6  N   UNL     1      -5.981   4.317   1.060  1.00  0.00    -0.342 N 
ATOM      7  C   UNL     1      -6.456   3.078   1.622  1.00  0.00     0.245 C 
ATOM      8  O   UNL     1      -6.432   2.947   2.877  1.00  0.00    -0.273 OA
ATOM      9  C   UNL     1      -6.952   1.910   0.785  1.00  0.00     0.200 C 
ATOM     10  N   UNL     1      -6.008   0.782   0.892  1.00  0.00    -0.340 N 
ATOM     11  C   UNL     1      -6.231  -0.497   0.276  1.00  0.00     0.243 C 
ATOM     12  O   UNL     1      -7.348  -1.067   0.382  1.00  0.00    -0.273 OA
ATOM     13  C   UNL     1      -5.108  -1.183  -0.462  1.00  0.00     0.171 C 
ATOM     14  N   UNL     1      -5.421  -2.600  -0.694  1.00  0.00    -0.343 N 
ATOM     15  C   UNL     1      -4.423  -3.631  -0.763  1.00  0.00     0.243 C 
ATOM     16  O   UNL     1      -4.410  -4.396  -1.766  1.00  0.00    -0.273 OA
ATOM     17  C   UNL     1      -3.424  -3.884   0.350  1.00  0.00     0.175 C 
ATOM     18  N   UNL     1      -2.188  -3.126   0.108  1.00  0.00    -0.342 N 
ATOM     19  C   UNL     1      -0.857  -3.613   0.371  1.00  0.00     0.243 C 
ATOM     20  O   UNL     1       0.121  -2.925  -0.025  1.00  0.00    -0.273 OA
ATOM     21  C   UNL     1      -0.603  -4.918   1.096  1.00  0.00     0.175 C 
ATOM     22  N   UNL     1      -0.633  -6.055   0.164  1.00  0.00    -0.342 N 
ATOM     23  C   UNL     1       0.504  -6.647  -0.490  1.00  0.00     0.243 C 
ATOM     24  O   UNL     1       0.596  -7.909  -0.499  1.00  0.00    -0.273 OA
ATOM     25  C   UNL     1       1.522  -5.835  -1.261  1.00  0.00     0.175 C 
ATOM     26  N   UNL     1       2.863  -6.403  -1.076  1.00  0.00    -0.342 N 
ATOM     27  C   UNL     1       3.995  -5.611  -0.701  1.00  0.00     0.243 C 
ATOM     28  O   UNL     1       4.447  -5.700   0.472  1.00  0.00    -0.273 OA
ATOM     29  C   UNL     1       4.797  -4.898  -1.761  1.00  0.00     0.180 C 
ATOM     30  N   UNL     1       5.403  -3.648  -1.267  1.00  0.00    -0.342 N 
ATOM     31  C   UNL     1       4.897  -2.804  -0.219  1.00  0.00     0.243 C 
ATOM     32  O   UNL     1       3.706  -2.928   0.183  1.00  0.00    -0.273 OA
ATOM     33  C   UNL     1       5.789  -1.716   0.335  1.00  0.00     0.171 C 
ATOM     34  N   UNL     1       5.131  -1.013   1.438  1.00  0.00    -0.342 N 
ATOM     35  C   UNL     1       4.393   0.190   1.211  1.00  0.00     0.244 C 
ATOM     36  O   UNL     1       3.157   0.108   0.959  1.00  0.00    -0.273 OA
ATOM     37  C   UNL     1       5.060   1.533   1.406  1.00  0.00     0.182 C 
ATOM     38  C   UNL     1       4.138   2.703   1.023  1.00  0.00     0.116 C 
ATOM     39  S   UNL     1       4.951   4.299   1.360  1.00  0.00    -0.091 SA
ATOM     40  S   UNL     1       3.198   5.448   0.981  1.00  0.00    -0.091 SA
ATOM     41  C   UNL     1       3.615   5.771  -0.773  1.00  0.00     0.118 C 
ATOM     42  C   UNL     1       2.781   6.946  -1.318  1.00  0.00     0.203 C 
ATOM     43  N   UNL     1       1.377   6.558  -1.514  1.00  0.00    -0.340 N 
ATOM     44  C   UNL     1       0.417   6.541  -0.449  1.00  0.00     0.245 C 
ATOM     45  O   UNL     1       0.022   5.415  -0.024  1.00  0.00    -0.273 OA
ATOM     46  C   UNL     1      -0.309   7.792   0.011  1.00  0.00     0.197 C 
ATOM     47  N   UNL     1      -1.140   7.476   1.180  1.00  0.00    -0.340 N 
ATOM     48  C   UNL     1      -2.575   7.580   1.284  1.00  0.00     0.245 C 
ATOM     49  O   UNL     1      -3.101   7.453   2.423  1.00  0.00    -0.273 OA
ATOM     50  H   UNL     1      -5.443   7.078   0.686  1.00  0.00     0.164 HD
ATOM     51  H   UNL     1      -5.759   5.065   1.760  1.00  0.00     0.164 HD
ATOM     52  H   UNL     1      -5.013   1.027   1.097  1.00  0.00     0.164 HD
ATOM     53  H   UNL     1      -6.335  -2.821  -1.154  1.00  0.00     0.164 HD
ATOM     54  H   UNL     1      -2.265  -2.170  -0.307  1.00  0.00     0.164 HD
ATOM     55  H   UNL     1      -1.487  -6.656   0.211  1.00  0.00     0.164 HD
ATOM     56  H   UNL     1       3.004  -7.439  -1.127  1.00  0.00     0.164 HD
ATOM     57  H   UNL     1       6.183  -3.234  -1.827  1.00  0.00     0.164 HD
ATOM     58  H   UNL     1       4.916  -1.556   2.310  1.00  0.00     0.164 HD
ATOM     59  H   UNL     1       1.198   5.851  -2.261  1.00  0.00     0.164 HD
ATOM     60  H   UNL     1      -0.631   7.164   2.041  1.00  0.00     0.164 HD
ENDROOT
BRANCH   1  61
ATOM     61  C   UNL     1      -4.068   9.260   0.145  1.00  0.00     0.143 C 
ATOM     62  C   UNL     1      -2.982  10.323  -0.058  1.00  0.00     0.041 C 
BRANCH  61  63
ATOM     63  O   UNL     1      -5.038   9.410  -0.858  1.00  0.00    -0.391 OA
ATOM     64  H   UNL     1      -5.637  10.149  -0.558  1.00  0.00     0.211 HD
ENDBRANCH  61  63
ENDBRANCH   1  61
BRANCH   5  65
ATOM     65  C   UNL     1      -6.767   4.895  -1.245  1.00  0.00     0.070 C 
BRANCH  65  66
ATOM     66  C   UNL     1      -7.486   6.160  -0.845  1.00  0.00    -0.045 A 
ATOM     67  C   UNL     1      -7.339   7.331  -1.609  1.00  0.00     0.004 A 
ATOM     68  C   UNL     1      -8.341   6.175   0.274  1.00  0.00     0.004 A 
ATOM     69  C   UNL     1      -8.039   8.495  -1.263  1.00  0.00     0.000 A 
ATOM     70  C   UNL     1      -9.029   7.341   0.622  1.00  0.00     0.000 A 
ATOM     71  C   UNL     1      -8.875   8.502  -0.146  1.00  0.00     0.000 A 
ENDBRANCH  65  66
ENDBRANCH   5  65
BRANCH  46  72
ATOM     72  C   UNL     1       0.638   8.945   0.379  1.00  0.00     0.191 C 
BRANCH  72  73
ATOM     73  O   UNL     1       1.132   9.556  -0.785  1.00  0.00    -0.394 OA
ATOM     74  H   UNL     1       1.806  10.217  -0.479  1.00  0.00     0.210 HD
ENDBRANCH  72  73
ENDBRANCH  46  72
BRANCH   9  75
ATOM     75  C   UNL     1      -8.421   1.539   1.153  1.00  0.00     0.143 C 
ATOM     76  C   UNL     1      -8.568   0.870   2.529  1.00  0.00     0.041 C 
BRANCH  75  77
ATOM     77  O   UNL     1      -9.233   2.682   1.129  1.00  0.00    -0.391 OA
ATOM     78  H   UNL     1      -9.335   2.955   0.178  1.00  0.00     0.211 HD
ENDBRANCH  75  77
ENDBRANCH   9  75
BRANCH  42  79
ATOM     79  C   UNL     1       3.377   7.435  -2.609  1.00  0.00     0.327 C 
ATOM     80  O   UNL     1       2.908   7.066  -3.723  1.00  0.00    -0.250 OA
BRANCH  79  81
ATOM     81  O   UNL     1       4.477   8.286  -2.579  1.00  0.00    -0.480 OA
ATOM     82  H   UNL     1       4.892   8.612  -3.440  1.00  0.00     0.296 HD
ENDBRANCH  79  81
ENDBRANCH  42  79
BRANCH  13  83
ATOM     83  C   UNL     1      -4.765  -0.456  -1.784  1.00  0.00     0.035 C 
BRANCH  83  84
ATOM     84  C   UNL     1      -5.700  -0.726  -2.985  1.00  0.00     0.004 C 
BRANCH  84  85
ATOM     85  C   UNL     1      -7.125  -0.174  -2.793  1.00  0.00     0.015 C 
BRANCH  85  86
ATOM     86  C   UNL     1      -7.985  -0.281  -4.068  1.00  0.00     0.077 C 
BRANCH  86  87
ATOM     87  N   UNL     1      -7.610   0.708  -5.080  1.00  0.00    -0.330 NA
ATOM     88  H   UNL     1      -6.679   0.450  -5.482  1.00  0.00     0.118 HD
ATOM     89  H   UNL     1      -7.524   1.649  -4.629  1.00  0.00     0.118 HD
ENDBRANCH  86  87
ENDBRANCH  85  86
ENDBRANCH  84  85
ENDBRANCH  83  84
ENDBRANCH  13  83
BRANCH  37  90
ATOM     90  N   UNL     1       6.292   1.599   0.613  1.00  0.00    -0.342 N 
ATOM     91  C   UNL     1       7.512   2.158   1.120  1.00  0.00     0.240 C 
ATOM     92  H   UNL     1       6.226   1.400  -0.409  1.00  0.00     0.164 HD
ATOM     93  O   UNL     1       7.655   2.348   2.360  1.00  0.00    -0.273 OA
BRANCH  91  94
ATOM     94  C   UNL     1       8.603   2.557   0.161  1.00  0.00     0.216 C 
BRANCH  94  95
ATOM     95  N   UNL     1       9.859   2.826   0.862  1.00  0.00    -0.346 N 
ATOM     96  C   UNL     1      10.089   4.037   1.592  1.00  0.00     0.237 C 
ATOM     97  H   UNL     1      10.621   2.111   0.807  1.00  0.00     0.164 HD
ATOM     98  O   UNL     1       9.178   4.906   1.679  1.00  0.00    -0.273 OA
BRANCH  96  99
ATOM     99  C   UNL     1      11.404   4.247   2.296  1.00  0.00     0.138 C 
ATOM    100  C   UNL     1      11.451   3.410   3.581  1.00  0.00     0.035 C 
BRANCH  99 101
ATOM    101  N   UNL     1      11.619   5.671   2.586  1.00  0.00    -0.320 NA
ATOM    102  H   UNL     1      12.593   5.789   2.950  1.00  0.00     0.119 HD
ATOM    103  H   UNL     1      10.967   5.972   3.346  1.00  0.00     0.119 HD
ENDBRANCH  99 101
ENDBRANCH  96  99
ENDBRANCH  94  95
ENDBRANCH  91  94
ENDBRANCH  37  90
BRANCH  17 104
ATOM    104  C   UNL     1      -3.981  -3.600   1.764  1.00  0.00     0.072 C 
BRANCH 104 105
ATOM    105  C   UNL     1      -5.241  -4.374   2.051  1.00  0.00    -0.020 A 
ATOM    106  C   UNL     1      -6.515  -3.834   2.220  1.00  0.00     0.087 A 
ATOM    107  C   UNL     1      -5.396  -5.741   2.198  1.00  0.00     0.003 A 
ATOM    108  N   UNL     1      -7.422  -4.812   2.440  1.00  0.00    -0.361 N 
ATOM    109  C   UNL     1      -6.733  -5.964   2.418  1.00  0.00     0.046 A 
ATOM    110  C   UNL     1      -4.472  -6.786   2.176  1.00  0.00     0.010 A 
ATOM    111  H   UNL     1      -8.446  -4.696   2.603  1.00  0.00     0.166 HD
ATOM    112  C   UNL     1      -7.240  -7.250   2.612  1.00  0.00     0.026 A 
ATOM    113  C   UNL     1      -4.957  -8.095   2.366  1.00  0.00     0.001 A 
ATOM    114  C   UNL     1      -6.332  -8.325   2.584  1.00  0.00     0.002 A 
ENDBRANCH 104 105
ENDBRANCH  17 104
BRANCH  33 115
ATOM    115  C   UNL     1       7.130  -2.307   0.827  1.00  0.00     0.035 C 
BRANCH 115 116
ATOM    116  C   UNL     1       8.166  -1.203   1.103  1.00  0.00     0.004 C 
BRANCH 116 117
ATOM    117  C   UNL     1       9.564  -1.768   1.420  1.00  0.00     0.015 C 
BRANCH 117 118
ATOM    118  C   UNL     1      10.463  -1.881   0.180  1.00  0.00     0.077 C 
BRANCH 118 119
ATOM    119  N   UNL     1       9.947  -2.876  -0.762  1.00  0.00    -0.330 NA
ATOM    120  H   UNL     1      10.105  -3.825  -0.348  1.00  0.00     0.118 HD
ATOM    121  H   UNL     1      10.539  -2.827  -1.623  1.00  0.00     0.118 HD
ENDBRANCH 118 119
ENDBRANCH 117 118
ENDBRANCH 116 117
ENDBRANCH 115 116
ENDBRANCH  33 115
BRANCH  21 122
ATOM    122  C   UNL     1       0.668  -4.879   1.980  1.00  0.00     0.070 C 
BRANCH 122 123
ATOM    123  C   UNL     1       0.792  -6.112   2.843  1.00  0.00    -0.045 A 
ATOM    124  C   UNL     1      -0.088  -6.307   3.923  1.00  0.00     0.004 A 
ATOM    125  C   UNL     1       1.782  -7.074   2.583  1.00  0.00     0.004 A 
ATOM    126  C   UNL     1       0.023  -7.445   4.725  1.00  0.00     0.000 A 
ATOM    127  C   UNL     1       1.897  -8.205   3.393  1.00  0.00     0.000 A 
ATOM    128  C   UNL     1       1.019  -8.394   4.464  1.00  0.00     0.000 A 
ENDBRANCH 122 123
ENDBRANCH  21 122
BRANCH  29 129
ATOM    129  C   UNL     1       5.901  -5.868  -2.246  1.00  0.00     0.134 C 
BRANCH 129 130
ATOM    130  C   UNL     1       6.778  -5.275  -3.312  1.00  0.00     0.220 C 
ATOM    131  N   UNL     1       6.320  -5.192  -4.660  1.00  0.00    -0.370 N 
ATOM    132  O   UNL     1       7.908  -4.811  -3.011  1.00  0.00    -0.275 OA
ATOM    133  H   UNL     1       6.915  -4.751  -5.394  1.00  0.00     0.159 HD
ATOM    134  H   UNL     1       5.391  -5.578  -4.930  1.00  0.00     0.159 HD
ENDBRANCH 129 130
ENDBRANCH  29 129
BRANCH  25 135
ATOM    135  C   UNL     1       1.158  -5.762  -2.761  1.00  0.00     0.070 C 
BRANCH 135 136
ATOM    136  C   UNL     1       1.313  -7.085  -3.480  1.00  0.00    -0.045 A 
ATOM    137  C   UNL     1       0.230  -7.976  -3.577  1.00  0.00     0.004 A 
ATOM    138  C   UNL     1       2.552  -7.447  -4.037  1.00  0.00     0.004 A 
ATOM    139  C   UNL     1       0.391  -9.219  -4.205  1.00  0.00     0.000 A 
ATOM    140  C   UNL     1       2.709  -8.686  -4.662  1.00  0.00     0.000 A 
ATOM    141  C   UNL     1       1.632  -9.573  -4.742  1.00  0.00     0.000 A 
ENDBRANCH 135 136
ENDBRANCH  25 135
TORSDOF 33
