REMARK SMILES O=C1OC(OC(=O)c2cccnc2Nc2cccc(C(F)(F)F)c2)c2ccccc21
REMARK SMILES IDX 13 1 8 2 9 3 10 4 11 5 12 6 14 7 15 9 19 10 24 11 18 12
REMARK SMILES IDX 17 13 16 14 20 15 21 16 22 17 23 18 6 19 7 20 5 21 4 22 3 23
REMARK SMILES IDX 25 24 2 25 30 26 26 27 1 28 29 29 27 30 28 31
REMARK H PARENT 14 8
REMARK Flexibility Score: inf
ROOT
ATOM      1  C   UNL     1       1.340  -1.147  -0.433  1.00  0.00     0.144 A 
ATOM      2  C   UNL     1      -0.057  -1.005  -0.623  1.00  0.00     0.102 A 
ATOM      3  C   UNL     1      -0.727  -1.973  -1.391  1.00  0.00     0.021 A 
ATOM      4  C   UNL     1      -0.023  -3.030  -1.966  1.00  0.00     0.021 A 
ATOM      5  C   UNL     1       1.352  -3.123  -1.768  1.00  0.00     0.113 A 
ATOM      6  N   UNL     1       1.991  -2.197  -1.009  1.00  0.00    -0.238 NA
ENDROOT
BRANCH   1   7
ATOM      7  N   UNL     1       2.072  -0.262   0.431  1.00  0.00    -0.340 N 
ATOM      8  H   UNL     1       1.613   0.052   1.316  1.00  0.00     0.168 HD
BRANCH   7   9
ATOM      9  C   UNL     1       3.458   0.070   0.235  1.00  0.00     0.040 A 
ATOM     10  C   UNL     1       5.592   0.799   1.177  1.00  0.00     0.058 A 
ATOM     11  C   UNL     1       4.243   0.438   1.340  1.00  0.00     0.039 A 
ATOM     12  C   UNL     1       6.160   0.755  -0.108  1.00  0.00     0.013 A 
ATOM     13  C   UNL     1       5.379   0.409  -1.213  1.00  0.00     0.003 A 
ATOM     14  C   UNL     1       4.033   0.078  -1.048  1.00  0.00     0.026 A 
BRANCH  10  15
ATOM     15  C   UNL     1       6.442   1.133   2.377  1.00  0.00     0.416 C 
ATOM     16  F   UNL     1       6.986  -0.031   2.887  1.00  0.00    -0.166 F 
ATOM     17  F   UNL     1       5.682   1.744   3.358  1.00  0.00    -0.166 F 
ATOM     18  F   UNL     1       7.468   1.993   2.027  1.00  0.00    -0.166 F 
ENDBRANCH  10  15
ENDBRANCH   7   9
ENDBRANCH   1   7
BRANCH   2  19
ATOM     19  C   UNL     1      -0.830   0.140  -0.086  1.00  0.00     0.345 C 
ATOM     20  O   UNL     1      -0.256   1.231   0.184  1.00  0.00    -0.246 OA
BRANCH  19  21
ATOM     21  O   UNL     1      -2.213   0.018   0.083  1.00  0.00    -0.417 OA
BRANCH  21  22
ATOM     22  C   UNL     1      -3.030   1.081   0.562  1.00  0.00     0.403 C 
ATOM     23  O   UNL     1      -3.078   2.144  -0.399  1.00  0.00    -0.417 OA
ATOM     24  C   UNL     1      -4.461   0.632   0.646  1.00  0.00     0.047 A 
ATOM     25  C   UNL     1      -4.379   2.321  -0.852  1.00  0.00     0.342 C 
ATOM     26  C   UNL     1      -5.249   1.376  -0.200  1.00  0.00     0.070 A 
ATOM     27  C   UNL     1      -5.014  -0.379   1.433  1.00  0.00     0.012 A 
ATOM     28  O   UNL     1      -4.725   3.181  -1.703  1.00  0.00    -0.246 OA
ATOM     29  C   UNL     1      -6.621   1.163  -0.316  1.00  0.00     0.016 A 
ATOM     30  C   UNL     1      -6.396  -0.620   1.339  1.00  0.00     0.001 A 
ATOM     31  C   UNL     1      -7.197   0.148   0.467  1.00  0.00     0.001 A 
ENDBRANCH  21  22
ENDBRANCH  19  21
ENDBRANCH   2  19
TORSDOF 6
