REMARK SMILES CCCCSc1ccc(C(SCCN(C)C)c2ccccc2)cc1
REMARK SMILES IDX 6 1 7 2 8 3 9 4 23 5 24 6 5 7 4 8 3 9 2 10 1 11 10 12 11 13
REMARK SMILES IDX 12 14 13 15 14 16 15 17 16 18 17 19 18 20 22 21 19 22 21 23
REMARK SMILES IDX 20 24
REMARK H PARENT
REMARK Flexibility Score: inf
ROOT
ATOM      1  C   UNL     1       3.089  -1.161   0.486  1.00  0.00     0.007 A 
ATOM      2  C   UNL     1       2.243  -1.154   1.599  1.00  0.00     0.015 A 
ATOM      3  C   UNL     1       0.873  -0.928   1.440  1.00  0.00     0.006 A 
ATOM      4  C   UNL     1       0.331  -0.701   0.161  1.00  0.00    -0.030 A 
ATOM      5  C   UNL     1       1.187  -0.740  -0.956  1.00  0.00     0.006 A 
ATOM      6  C   UNL     1       2.556  -0.967  -0.793  1.00  0.00     0.015 A 
ENDROOT
BRANCH   1   7
ATOM      7  S   UNL     1       4.846  -1.466   0.692  1.00  0.00    -0.126 SA
BRANCH   7   8
ATOM      8  C   UNL     1       5.284   0.271   1.077  1.00  0.00     0.075 C 
BRANCH   8   9
ATOM      9  C   UNL     1       5.305   1.169  -0.167  1.00  0.00     0.011 C 
BRANCH   9  10
ATOM     10  C   UNL     1       6.383   0.747  -1.174  1.00  0.00    -0.003 C 
ATOM     11  C   UNL     1       6.426   1.701  -2.364  1.00  0.00     0.004 C 
ENDBRANCH   9  10
ENDBRANCH   8   9
ENDBRANCH   7   8
ENDBRANCH   1   7
BRANCH   4  12
ATOM     12  C   UNL     1      -1.162  -0.498   0.007  1.00  0.00     0.106 C 
BRANCH  12  13
ATOM     13  S   UNL     1      -1.532   0.892  -1.143  1.00  0.00    -0.148 SA
BRANCH  13  14
ATOM     14  C   UNL     1      -3.290   1.103  -0.681  1.00  0.00     0.086 C 
BRANCH  14  15
ATOM     15  C   UNL     1      -3.425   2.081   0.490  1.00  0.00     0.094 C 
BRANCH  15  16
ATOM     16  N   UNL     1      -4.850   2.312   0.811  1.00  0.00    -0.309 NA
ATOM     17  C   UNL     1      -5.024   3.629   1.445  1.00  0.00     0.105 C 
ATOM     18  C   UNL     1      -5.364   1.265   1.713  1.00  0.00     0.105 C 
ENDBRANCH  15  16
ENDBRANCH  14  15
ENDBRANCH  13  14
ENDBRANCH  12  13
BRANCH  12  19
ATOM     19  C   UNL     1      -1.822  -1.792  -0.425  1.00  0.00    -0.031 A 
ATOM     20  C   UNL     1      -2.454  -2.603   0.535  1.00  0.00     0.005 A 
ATOM     21  C   UNL     1      -1.776  -2.230  -1.763  1.00  0.00     0.005 A 
ATOM     22  C   UNL     1      -3.045  -3.813   0.161  1.00  0.00     0.000 A 
ATOM     23  C   UNL     1      -2.369  -3.441  -2.131  1.00  0.00     0.000 A 
ATOM     24  C   UNL     1      -3.005  -4.231  -1.171  1.00  0.00     0.000 A 
ENDBRANCH  12  19
ENDBRANCH   4  12
TORSDOF 10
