REMARK SMILES CCN1CCN(c2cc(-c3ccc(F)cc3)c3c(n2)CCCCCC3)CC1
REMARK SMILES IDX 20 1 18 2 7 3 19 4 8 5 9 6 17 7 6 8 3 9 4 10 27 11 5 12
REMARK SMILES IDX 26 13 2 14 1 15 10 16 11 17 16 18 12 19 15 20 13 21 14 22
REMARK SMILES IDX 25 23 24 24 21 26 22 27 23 28
REMARK H PARENT
REMARK Flexibility Score: 90.00
ROOT
ATOM      1  C   UNL     1      -1.537  -2.921  -0.416  1.00  0.00     0.056 C 
ENDROOT
BRANCH   1   2
ATOM      2  C   UNL     1      -1.100  -1.491  -0.176  1.00  0.00     0.047 A 
ATOM      3  C   UNL     1       0.767   0.007  -0.201  1.00  0.00     0.129 A 
ATOM      4  N   UNL     1       0.227  -1.231  -0.327  1.00  0.00    -0.236 NA
ATOM      5  C   UNL     1      -0.076   1.092   0.047  1.00  0.00     0.056 A 
ATOM      6  C   UNL     1      -1.454   0.893   0.191  1.00  0.00    -0.010 A 
ATOM      7  C   UNL     1      -1.995  -0.420   0.115  1.00  0.00    -0.018 A 
BRANCH   3   8
ATOM      8  N   UNL     1       2.187   0.186  -0.379  1.00  0.00    -0.354 N 
ATOM      9  N   UNL     1       5.044   0.017  -0.319  1.00  0.00    -0.300 NA
ATOM     10  C   UNL     1       4.317   0.822   0.706  1.00  0.00     0.106 C 
ATOM     11  C   UNL     1       4.309  -0.146  -1.588  1.00  0.00     0.106 C 
ATOM     12  C   UNL     1       2.910   1.279   0.282  1.00  0.00     0.133 C 
ATOM     13  C   UNL     1       2.899  -0.678  -1.324  1.00  0.00     0.133 C 
BRANCH   9  14
ATOM     14  C   UNL     1       6.407   0.535  -0.573  1.00  0.00     0.081 C 
ATOM     15  C   UNL     1       7.340   0.204   0.591  1.00  0.00     0.021 C 
ENDBRANCH   9  14
ENDBRANCH   3   8
BRANCH   6  16
ATOM     16  C   UNL     1      -2.297   2.094   0.379  1.00  0.00    -0.018 A 
ATOM     17  C   UNL     1      -2.166   2.875   1.538  1.00  0.00     0.012 A 
ATOM     18  C   UNL     1      -3.208   2.483  -0.617  1.00  0.00     0.012 A 
ATOM     19  C   UNL     1      -2.955   4.017   1.709  1.00  0.00     0.040 A 
ATOM     20  C   UNL     1      -3.995   3.625  -0.443  1.00  0.00     0.040 A 
ATOM     21  C   UNL     1      -3.871   4.391   0.721  1.00  0.00     0.123 A 
ATOM     22  F   UNL     1      -4.636   5.497   0.890  1.00  0.00    -0.207 F 
ENDBRANCH   6  16
BRANCH   7  23
ATOM     23  C   UNL     1      -3.468  -0.669   0.427  1.00  0.00     0.038 C 
BRANCH  23  24
ATOM     24  C   UNL     1      -4.216  -1.352  -0.733  1.00  0.00     0.005 CG0
ATOM     25  G   UNL     1      -4.534  -2.860  -0.567  1.00  0.00     0.000 G0
ENDBRANCH  23  24
ENDBRANCH   7  23
ENDBRANCH   1   2
BRANCH   1  26
ATOM     26  C   UNL     1      -2.323  -3.536   0.758  1.00  0.00     0.006 C 
BRANCH  26  27
ATOM     27  C   UNL     1      -3.862  -3.637   0.589  1.00  0.00     0.000 C 
BRANCH  27  28
ATOM     28  C   UNL     1      -4.534  -2.860  -0.567  1.00  0.00     0.000 CG0
ATOM     29  G   UNL     1      -4.216  -1.352  -0.733  1.00  0.00     0.000 G0
ENDBRANCH  27  28
ENDBRANCH  26  27
ENDBRANCH   1  26
TORSDOF 3
