REMARK SMILES CCCC[C@H](C)C[C@H](O)/C=C/[C@H]1[C@H](O)CC(=O)[C@@H]1CCCC/C=C/C(=O)O
REMARK SMILES IDX 12 1 13 2 15 3 16 4 17 5 18 6 11 7 10 8 8 9 7 10 5 11 6 12
REMARK SMILES IDX 4 13 3 14 2 15 1 16 9 17 14 19 19 21 20 22 21 23 22 24 23 25
REMARK SMILES IDX 24 26 25 27 26 28 27 29
REMARK H PARENT 9 18 14 20 27 30
REMARK Flexibility Score: inf
ROOT
ATOM      1  C   UNL     1       0.891  -0.590   1.391  1.00  0.00     0.051 C 
ATOM      2  C   UNL     1       1.063  -1.141   2.829  1.00  0.00     0.129 C 
ATOM      3  C   UNL     1       1.171  -2.660   2.693  1.00  0.00     0.108 C 
ATOM      4  C   UNL     1       1.571  -2.867   1.281  1.00  0.00     0.139 C 
ATOM      5  O   UNL     1       1.857  -3.966   0.830  1.00  0.00    -0.299 OA
ATOM      6  C   UNL     1       1.554  -1.629   0.453  1.00  0.00     0.065 C 
ENDROOT
BRANCH   1   7
ATOM      7  C   UNL     1      -0.574  -0.423   1.047  1.00  0.00    -0.022 C 
ATOM      8  C   UNL     1      -0.956   0.203  -0.077  1.00  0.00     0.000 C 
BRANCH   8   9
ATOM      9  C   UNL     1      -2.419   0.365  -0.432  1.00  0.00     0.137 C 
BRANCH   9  10
ATOM     10  C   UNL     1      -3.081  -0.999  -0.785  1.00  0.00     0.039 C 
BRANCH  10  11
ATOM     11  C   UNL     1      -4.428  -1.312  -0.084  1.00  0.00    -0.011 C 
ATOM     12  C   UNL     1      -4.319  -1.387   1.449  1.00  0.00     0.008 C 
BRANCH  11  13
ATOM     13  C   UNL     1      -5.636  -0.477  -0.581  1.00  0.00     0.003 C 
BRANCH  13  14
ATOM     14  C   UNL     1      -5.693   0.985  -0.102  1.00  0.00    -0.000 C 
BRANCH  14  15
ATOM     15  C   UNL     1      -7.032   1.630  -0.479  1.00  0.00    -0.003 C 
ATOM     16  C   UNL     1      -7.086   3.089  -0.033  1.00  0.00     0.004 C 
ENDBRANCH  14  15
ENDBRANCH  13  14
ENDBRANCH  11  13
ENDBRANCH  10  11
ENDBRANCH   9  10
BRANCH   9  17
ATOM     17  O   UNL     1      -2.551   1.270  -1.502  1.00  0.00    -0.389 OA
ATOM     18  H   UNL     1      -2.066   0.893  -2.283  1.00  0.00     0.211 HD
ENDBRANCH   9  17
ENDBRANCH   8   9
ENDBRANCH   1   7
BRANCH   2  19
ATOM     19  O   UNL     1       2.250  -0.643   3.393  1.00  0.00    -0.392 OA
ATOM     20  H   UNL     1       2.056   0.284   3.689  1.00  0.00     0.210 HD
ENDBRANCH   2  19
BRANCH   6  21
ATOM     21  C   UNL     1       2.989  -1.239   0.041  1.00  0.00     0.012 C 
BRANCH  21  22
ATOM     22  C   UNL     1       3.004  -0.088  -0.984  1.00  0.00     0.001 C 
BRANCH  22  23
ATOM     23  C   UNL     1       4.398   0.153  -1.585  1.00  0.00     0.004 C 
BRANCH  23  24
ATOM     24  C   UNL     1       5.409   0.670  -0.550  1.00  0.00     0.027 C 
BRANCH  24  25
ATOM     25  C   UNL     1       6.702   1.072  -1.202  1.00  0.00    -0.019 C 
ATOM     26  C   UNL     1       7.717   1.538  -0.468  1.00  0.00     0.089 C 
BRANCH  26  27
ATOM     27  C   UNL     1       9.002   1.946  -1.060  1.00  0.00     0.327 C 
ATOM     28  O   UNL     1       9.199   1.866  -2.303  1.00  0.00    -0.247 OA
BRANCH  27  29
ATOM     29  O   UNL     1      10.010   2.426  -0.231  1.00  0.00    -0.478 OA
ATOM     30  H   UNL     1      10.903   2.714  -0.611  1.00  0.00     0.297 HD
ENDBRANCH  27  29
ENDBRANCH  26  27
ENDBRANCH  24  25
ENDBRANCH  23  24
ENDBRANCH  22  23
ENDBRANCH  21  22
ENDBRANCH   6  21
TORSDOF 16
