REMARK SMILES CCc1cc2c(s1)-n1c(C)nnc1CN=C2c1ccccc1Cl
REMARK SMILES IDX 3 1 4 2 5 3 6 4 7 5 8 6 9 7 10 8 11 9 12 10 13 11 14 12
REMARK SMILES IDX 15 13 16 14 2 15 1 16 17 17 18 18 22 19 19 20 21 21 23 22
REMARK SMILES IDX 20 23
REMARK H PARENT
REMARK Flexibility Score: inf
ROOT
ATOM      1  C   UNL     1       2.135  -0.380   0.932  1.00  0.00     0.007 A 
ATOM      2  C   UNL     1       0.941  -0.910   0.455  1.00  0.00     0.028 A 
ATOM      3  C   UNL     1       0.169   0.014  -0.271  1.00  0.00     0.036 A 
ATOM      4  C   UNL     1       0.776   1.269  -0.349  1.00  0.00     0.112 A 
ATOM      5  S   UNL     1       2.258   1.226   0.450  1.00  0.00    -0.122 S 
ATOM      6  N   UNL     1       0.240   2.401  -1.047  1.00  0.00    -0.272 N 
ATOM      7  C   UNL     1       0.405   3.723  -0.833  1.00  0.00     0.135 A 
ATOM      8  C   UNL     1       1.209   4.332   0.270  1.00  0.00     0.090 C 
ATOM      9  N   UNL     1      -0.260   4.451  -1.753  1.00  0.00    -0.135 NA
ATOM     10  N   UNL     1      -0.861   3.595  -2.568  1.00  0.00    -0.133 NA
ATOM     11  C   UNL     1      -0.559   2.359  -2.125  1.00  0.00     0.160 A 
ATOM     12  C   UNL     1      -0.956   1.094  -2.814  1.00  0.00     0.220 C 
ATOM     13  N   UNL     1      -1.659   0.203  -1.895  1.00  0.00    -0.276 NA
ATOM     14  C   UNL     1      -1.192  -0.303  -0.786  1.00  0.00     0.077 C 
ENDROOT
BRANCH   1  15
ATOM     15  C   UNL     1       3.187  -1.137   1.680  1.00  0.00     0.043 C 
ATOM     16  C   UNL     1       4.144  -1.824   0.714  1.00  0.00     0.010 C 
ENDBRANCH   1  15
BRANCH  14  17
ATOM     17  C   UNL     1      -2.049  -1.258  -0.048  1.00  0.00     0.019 A 
ATOM     18  C   UNL     1      -2.588  -2.360  -0.734  1.00  0.00     0.012 A 
ATOM     19  C   UNL     1      -2.345  -1.087   1.324  1.00  0.00     0.050 A 
ATOM     20  C   UNL     1      -3.385  -3.291  -0.063  1.00  0.00     0.001 A 
ATOM     21  C   UNL     1      -3.146  -2.027   1.985  1.00  0.00     0.021 A 
ATOM     22  Cl  UNL     1      -1.793   0.318   2.231  1.00  0.00    -0.084 Cl
ATOM     23  C   UNL     1      -3.660  -3.127   1.295  1.00  0.00     0.002 A 
ENDBRANCH  14  17
TORSDOF 2
