REMARK SMILES Cc1cccc(N2CC(CO)OC2=O)c1
REMARK SMILES IDX 7 1 8 2 9 3 12 4 13 5 14 6 6 7 1 8 2 9 15 10 3 11 4 12 5 13
REMARK SMILES IDX 10 14 11 15
REMARK H PARENT 11 16
REMARK Flexibility Score: inf
ROOT
ATOM      1  N   UNL     1       0.739  -0.317  -0.375  1.00  0.00    -0.274 N 
ATOM      2  C   UNL     1       1.449   0.092   0.833  1.00  0.00     0.177 C 
ATOM      3  C   UNL     1       2.959  -0.024   0.481  1.00  0.00     0.224 C 
ATOM      4  O   UNL     1       2.999  -0.357  -0.902  1.00  0.00    -0.441 OA
ATOM      5  C   UNL     1       1.719  -0.532  -1.374  1.00  0.00     0.414 C 
ATOM      6  O   UNL     1       1.460  -0.788  -2.579  1.00  0.00    -0.224 OA
ENDROOT
BRANCH   1   7
ATOM      7  C   UNL     1      -0.685  -0.514  -0.486  1.00  0.00     0.047 A 
ATOM      8  C   UNL     1      -3.887   0.836   1.090  1.00  0.00     0.044 C 
ATOM      9  C   UNL     1      -2.956   0.051   0.212  1.00  0.00    -0.049 A 
ATOM     10  C   UNL     1      -1.568   0.235   0.312  1.00  0.00     0.030 A 
ATOM     11  C   UNL     1      -3.463  -0.919  -0.663  1.00  0.00     0.003 A 
ATOM     12  C   UNL     1      -2.594  -1.678  -1.448  1.00  0.00     0.002 A 
ATOM     13  C   UNL     1      -1.213  -1.480  -1.362  1.00  0.00     0.026 A 
ENDBRANCH   1   7
BRANCH   3  14
ATOM     14  C   UNL     1       3.721   1.281   0.737  1.00  0.00     0.203 C 
BRANCH  14  15
ATOM     15  O   UNL     1       5.085   1.112   0.459  1.00  0.00    -0.392 OA
ATOM     16  H   UNL     1       5.186   1.179  -0.526  1.00  0.00     0.210 HD
ENDBRANCH  14  15
ENDBRANCH   3  14
TORSDOF 3
