REMARK SMILES FC(F)(F)c1cccc(N2CCN(CCc3nnc4n3C[C@@H]3CCC[C@H]43)CC2)c1
REMARK SMILES IDX 13 1 12 2 11 3 10 4 28 5 27 6 14 7 15 8 16 9 22 10 23 11
REMARK SMILES IDX 26 12 21 13 24 14 25 15 19 16 20 17 18 18 17 19 9 20 8 21
REMARK SMILES IDX 29 22 7 23 5 24 6 25 2 26 1 27 3 28 4 29
REMARK H PARENT
REMARK Flexibility Score: inf
ROOT
ATOM      1  N   UNL     1       0.411   1.031   1.216  1.00  0.00    -0.299 NA
ATOM      2  C   UNL     1       1.464   0.656   2.177  1.00  0.00     0.106 C 
ATOM      3  C   UNL     1       2.356  -0.440   1.597  1.00  0.00     0.132 C 
ATOM      4  N   UNL     1       2.913  -0.029   0.305  1.00  0.00    -0.369 N 
ATOM      5  C   UNL     1       2.438   1.216  -0.314  1.00  0.00     0.132 C 
ATOM      6  C   UNL     1       0.917   1.365  -0.147  1.00  0.00     0.106 C 
ENDROOT
BRANCH   1   7
ATOM      7  C   UNL     1      -0.446   2.100   1.777  1.00  0.00     0.092 C 
BRANCH   7   8
ATOM      8  C   UNL     1      -1.816   2.130   1.088  1.00  0.00     0.093 C 
BRANCH   8   9
ATOM      9  C   UNL     1      -2.521   0.814   1.221  1.00  0.00     0.134 A 
ATOM     10  C   UNL     1      -4.445  -0.747  -1.458  1.00  0.00     0.020 C 
ATOM     11  C   UNL     1      -5.808  -0.175  -1.859  1.00  0.00     0.006 C 
ATOM     12  C   UNL     1      -4.678  -1.511  -0.123  1.00  0.00     0.063 C 
ATOM     13  C   UNL     1      -3.383   0.363  -1.160  1.00  0.00     0.129 C 
ATOM     14  C   UNL     1      -6.596  -0.062  -0.566  1.00  0.00     0.001 C 
ATOM     15  C   UNL     1      -6.128  -1.226   0.295  1.00  0.00     0.012 C 
ATOM     16  C   UNL     1      -3.682  -0.871   0.769  1.00  0.00     0.136 A 
ATOM     17  N   UNL     1      -2.984   0.083   0.199  1.00  0.00    -0.314 N 
ATOM     18  N   UNL     1      -3.659  -0.788   2.115  1.00  0.00    -0.135 NA
ATOM     19  N   UNL     1      -2.904   0.271   2.402  1.00  0.00    -0.135 NA
ENDBRANCH   8   9
ENDBRANCH   7   8
ENDBRANCH   1   7
BRANCH   4  20
ATOM     20  C   UNL     1       4.049  -0.739  -0.241  1.00  0.00     0.037 A 
ATOM     21  C   UNL     1       4.140  -2.140  -0.130  1.00  0.00     0.026 A 
ATOM     22  C   UNL     1       5.103  -0.042  -0.868  1.00  0.00     0.039 A 
ATOM     23  C   UNL     1       5.257  -2.824  -0.623  1.00  0.00     0.003 A 
ATOM     24  C   UNL     1       6.218  -0.726  -1.385  1.00  0.00     0.058 A 
ATOM     25  C   UNL     1       6.297  -2.122  -1.234  1.00  0.00     0.013 A 
BRANCH  24  26
ATOM     26  C   UNL     1       7.362   0.046  -2.005  1.00  0.00     0.416 C 
ATOM     27  F   UNL     1       8.113  -0.761  -2.845  1.00  0.00    -0.166 F 
ATOM     28  F   UNL     1       6.880   1.108  -2.748  1.00  0.00    -0.166 F 
ATOM     29  F   UNL     1       8.176   0.534  -1.000  1.00  0.00    -0.166 F 
ENDBRANCH  24  26
ENDBRANCH   4  20
TORSDOF 5
