REMARK SMILES CN1CCc2nc(C(=O)N[C@@H]3C[C@@H](C(=O)N(C)C)CC[C@@H]3NC(=O)C(=O)Nc3ccc(Cl)cn3)sc2C1
REMARK SMILES IDX 13 1 19 2 20 3 21 4 11 5 12 6 14 7 17 8 16 9 18 10 15 11
REMARK SMILES IDX 10 12 8 13 9 15 7 16 6 17 35 18 5 19 36 20 4 21 37 22 3 23
REMARK SMILES IDX 2 24 1 25 22 26 23 27 24 29 25 30 26 31 27 32 28 34 34 35
REMARK SMILES IDX 29 36 33 37 30 38 31 39 32 40
REMARK H PARENT 10 14 22 28 27 33
REMARK Flexibility Score: inf
ROOT
ATOM      1  C   UNL     1       0.919   3.500  -0.654  1.00  0.00     0.081 C 
ATOM      2  C   UNL     1       2.216   3.110   0.081  1.00  0.00     0.016 C 
ATOM      3  C   UNL     1       1.941   2.559   1.485  1.00  0.00     0.028 C 
ATOM      4  C   UNL     1       1.017   1.330   1.431  1.00  0.00     0.105 C 
ATOM      5  C   UNL     1      -0.327   1.707   0.752  1.00  0.00     0.105 C 
ATOM      6  C   UNL     1      -0.109   2.339  -0.646  1.00  0.00     0.040 C 
ENDROOT
BRANCH   1   7
ATOM      7  C   UNL     1       0.360   4.810  -0.118  1.00  0.00     0.225 C 
ATOM      8  C   UNL     1       0.627   7.261   0.331  1.00  0.00     0.146 C 
ATOM      9  N   UNL     1       0.933   6.085  -0.489  1.00  0.00    -0.349 N 
ATOM     10  C   UNL     1       1.761   6.226  -1.691  1.00  0.00     0.146 C 
ATOM     11  O   UNL     1      -0.587   4.784   0.717  1.00  0.00    -0.275 OA
ENDBRANCH   1   7
BRANCH   5  12
ATOM     12  N   UNL     1      -1.214   0.539   0.656  1.00  0.00    -0.345 N 
ATOM     13  C   UNL     1      -2.619   0.661   0.376  1.00  0.00     0.280 C 
ATOM     14  H   UNL     1      -0.833  -0.410   0.869  1.00  0.00     0.164 HD
ATOM     15  O   UNL     1      -3.136   1.800   0.217  1.00  0.00    -0.267 OA
BRANCH  13  16
ATOM     16  C   UNL     1      -3.478  -0.530   0.282  1.00  0.00     0.181 A 
ATOM     17  N   UNL     1      -4.799  -0.463  -0.014  1.00  0.00    -0.236 NA
ATOM     18  S   UNL     1      -2.980  -2.126   0.541  1.00  0.00    -0.112 S 
ATOM     19  C   UNL     1      -5.374  -1.695  -0.017  1.00  0.00     0.058 A 
ATOM     20  C   UNL     1      -4.511  -2.744   0.239  1.00  0.00     0.042 A 
ATOM     21  C   UNL     1      -6.814  -1.927  -0.349  1.00  0.00     0.073 C 
ATOM     22  C   UNL     1      -4.956  -4.169   0.376  1.00  0.00     0.132 C 
ATOM     23  C   UNL     1      -7.256  -3.345   0.077  1.00  0.00     0.091 C 
ATOM     24  N   UNL     1      -6.268  -4.394  -0.275  1.00  0.00    -0.301 NA
ATOM     25  C   UNL     1      -6.131  -4.562  -1.732  1.00  0.00     0.105 C 
ENDBRANCH  13  16
ENDBRANCH   5  12
BRANCH   4  26
ATOM     26  N   UNL     1       1.687   0.212   0.748  1.00  0.00    -0.343 N 
ATOM     27  C   UNL     1       2.768  -0.518   1.351  1.00  0.00     0.310 C 
ATOM     28  H   UNL     1       1.351  -0.091  -0.193  1.00  0.00     0.164 HD
ATOM     29  O   UNL     1       3.110  -0.269   2.539  1.00  0.00    -0.264 OA
BRANCH  27  30
ATOM     30  C   UNL     1       3.487  -1.557   0.588  1.00  0.00     0.314 C 
ATOM     31  O   UNL     1       3.100  -1.845  -0.576  1.00  0.00    -0.263 OA
ATOM     32  N   UNL     1       4.618  -2.233   1.168  1.00  0.00    -0.302 N 
ATOM     33  H   UNL     1       4.888  -1.988   2.147  1.00  0.00     0.172 HD
BRANCH  32  34
ATOM     34  C   UNL     1       5.442  -3.183   0.468  1.00  0.00     0.132 A 
ATOM     35  N   UNL     1       5.143  -3.564  -0.807  1.00  0.00    -0.238 NA
ATOM     36  C   UNL     1       6.574  -3.724   1.097  1.00  0.00     0.049 A 
ATOM     37  C   UNL     1       5.911  -4.451  -1.495  1.00  0.00     0.134 A 
ATOM     38  C   UNL     1       7.379  -4.632   0.407  1.00  0.00     0.026 A 
ATOM     39  C   UNL     1       7.047  -5.002  -0.898  1.00  0.00     0.059 A 
ATOM     40  Cl  UNL     1       8.051  -6.139  -1.780  1.00  0.00    -0.083 Cl
ENDBRANCH  32  34
ENDBRANCH  27  30
ENDBRANCH   4  26
TORSDOF 6
