REMARK SMILES O=P([O-])([O-])OP(=O)([O-])[O-].O=P([O-])([O-])OP(=O)([O-])[O-].O=P([O-])([O-])OP(=O)([O-])[O-].[Fe+3].[Fe+3].[Fe+3].[Fe+3]
REMARK SMILES IDX 28 1
REMARK H PARENT
REMARK Flexibility Score: inf
ROOT
ATOM      1  Fe  UNL     1       0.000   0.000   0.000  1.00  0.00     3.000 Fe
ENDROOT
TORSDOF 0
