REMARK SMILES CC(=O)c1cc2cccc(OCC(O)CNC(C)C)c2o1
REMARK SMILES IDX 12 1 13 2 15 3 16 4 17 6 18 7 19 8 14 9 11 11 10 12 9 13
REMARK SMILES IDX 20 14 8 15 6 16 21 17 7 18 5 19 4 20 2 21 1 22 3 23
REMARK H PARENT 16 5 14 10
REMARK Flexibility Score: inf
ROOT
ATOM      1  C   UNL     1       0.799  -1.006   0.701  1.00  0.00     0.262 C 
ENDROOT
BRANCH   1   2
ATOM      2  C   UNL     1       1.373  -0.802  -0.711  1.00  0.00     0.165 C 
BRANCH   2   3
ATOM      3  C   UNL     1       2.902  -0.970  -0.720  1.00  0.00     0.116 C 
BRANCH   3   4
ATOM      4  N   UNL     1       3.543   0.054   0.120  1.00  0.00    -0.312 NA
ATOM      5  H   UNL     1       3.485   0.980  -0.367  1.00  0.00     0.123 HD
BRANCH   4   6
ATOM      6  C   UNL     1       4.953  -0.260   0.416  1.00  0.00     0.047 C 
ATOM      7  C   UNL     1       5.416   0.601   1.592  1.00  0.00     0.024 C 
ATOM      8  C   UNL     1       5.862  -0.027  -0.803  1.00  0.00     0.024 C 
ENDBRANCH   4   6
ENDBRANCH   3   4
ENDBRANCH   2   3
BRANCH   2   9
ATOM      9  O   UNL     1       1.022   0.468  -1.195  1.00  0.00    -0.388 OA
ATOM     10  H   UNL     1       1.153   0.447  -2.179  1.00  0.00     0.211 HD
ENDBRANCH   2   9
ENDBRANCH   1   2
BRANCH   1  11
ATOM     11  O   UNL     1      -0.629  -0.981   0.678  1.00  0.00    -0.487 OA
BRANCH  11  12
ATOM     12  C   UNL     1      -1.429   0.173   0.704  1.00  0.00     0.162 A 
ATOM     13  C   UNL     1      -0.921   1.482   0.899  1.00  0.00     0.050 A 
ATOM     14  C   UNL     1      -2.808   0.043   0.540  1.00  0.00     0.176 A 
ATOM     15  C   UNL     1      -1.792   2.594   0.916  1.00  0.00     0.005 A 
ATOM     16  C   UNL     1      -3.647   1.125   0.559  1.00  0.00     0.025 A 
ATOM     17  O   UNL     1      -3.491  -1.060   0.352  1.00  0.00    -0.449 OA
ATOM     18  C   UNL     1      -3.176   2.421   0.744  1.00  0.00     0.012 A 
ATOM     19  C   UNL     1      -4.925   0.653   0.369  1.00  0.00     0.063 A 
ATOM     20  C   UNL     1      -4.766  -0.727   0.246  1.00  0.00     0.170 A 
BRANCH  20  21
ATOM     21  C   UNL     1      -5.841  -1.706   0.026  1.00  0.00     0.194 C 
ATOM     22  C   UNL     1      -7.270  -1.276  -0.087  1.00  0.00     0.097 C 
ATOM     23  O   UNL     1      -5.553  -2.929  -0.067  1.00  0.00    -0.291 OA
ENDBRANCH  20  21
ENDBRANCH  11  12
ENDBRANCH   1  11
TORSDOF 8
