REMARK SMILES COc1ccc(CC(C)(C)NC[C@H](O)c2cc(O)cc3c2OCC(=O)N3)cc1
REMARK SMILES IDX 11 1 8 3 9 4 10 5 7 6 6 7 3 8 4 9 28 10 5 11 27 12 2 13 1 14
REMARK SMILES IDX 12 15 13 16 14 17 15 19 21 20 16 21 22 22 20 23 17 24 23 25
REMARK SMILES IDX 26 26 19 27 24 28 25 30 18 31
REMARK H PARENT 11 2 14 18 26 29 18 32
REMARK Flexibility Score: inf
ROOT
ATOM      1  N   UNL     1       0.029   0.231   1.878  1.00  0.00    -0.309 NA
ATOM      2  H   UNL     1       0.313  -0.422   2.647  1.00  0.00     0.123 HD
ENDROOT
BRANCH   1   3
ATOM      3  C   UNL     1       1.229   0.574   1.071  1.00  0.00     0.017 C 
ATOM      4  C   UNL     1       2.304   1.093   2.055  1.00  0.00     0.028 C 
ATOM      5  C   UNL     1       0.891   1.727   0.095  1.00  0.00     0.028 C 
BRANCH   3   6
ATOM      6  C   UNL     1       1.764  -0.678   0.303  1.00  0.00     0.057 C 
BRANCH   6   7
ATOM      7  C   UNL     1       3.070  -0.453  -0.425  1.00  0.00    -0.046 A 
ATOM      8  C   UNL     1       5.505  -0.019  -1.779  1.00  0.00     0.118 A 
ATOM      9  C   UNL     1       5.501  -0.533  -0.469  1.00  0.00     0.046 A 
ATOM     10  C   UNL     1       4.286   0.270  -2.402  1.00  0.00     0.046 A 
ATOM     11  C   UNL     1       4.292  -0.750   0.200  1.00  0.00     0.007 A 
ATOM     12  C   UNL     1       3.077   0.054  -1.734  1.00  0.00     0.007 A 
BRANCH   8  13
ATOM     13  O   UNL     1       6.690   0.217  -2.492  1.00  0.00    -0.497 OA
ATOM     14  C   UNL     1       7.996  -0.031  -1.983  1.00  0.00     0.278 C 
ENDBRANCH   8  13
ENDBRANCH   6   7
ENDBRANCH   3   6
ENDBRANCH   1   3
BRANCH   1  15
ATOM     15  C   UNL     1      -1.070  -0.414   1.139  1.00  0.00     0.118 C 
BRANCH  15  16
ATOM     16  C   UNL     1      -2.386  -0.266   1.917  1.00  0.00     0.162 C 
BRANCH  16  17
ATOM     17  O   UNL     1      -2.315  -0.964   3.135  1.00  0.00    -0.387 OA
ATOM     18  H   UNL     1      -1.887  -0.360   3.797  1.00  0.00     0.211 HD
ENDBRANCH  16  17
BRANCH  16  19
ATOM     19  C   UNL     1      -3.536  -0.800   1.086  1.00  0.00     0.030 A 
ATOM     20  C   UNL     1      -4.273   0.057   0.243  1.00  0.00     0.149 A 
ATOM     21  C   UNL     1      -3.821  -2.179   1.073  1.00  0.00     0.056 A 
ATOM     22  O   UNL     1      -3.988   1.430   0.199  1.00  0.00    -0.481 OA
ATOM     23  C   UNL     1      -5.315  -0.455  -0.548  1.00  0.00     0.088 A 
ATOM     24  C   UNL     1      -4.854  -2.687   0.280  1.00  0.00     0.118 A 
ATOM     25  C   UNL     1      -4.429   2.288  -0.856  1.00  0.00     0.329 C 
ATOM     26  N   UNL     1      -6.093   0.441  -1.349  1.00  0.00    -0.320 N 
ATOM     27  C   UNL     1      -5.607  -1.823  -0.523  1.00  0.00     0.076 A 
ATOM     28  C   UNL     1      -5.735   1.823  -1.431  1.00  0.00     0.262 C 
ATOM     29  H   UNL     1      -6.937   0.096  -1.860  1.00  0.00     0.170 HD
ATOM     30  O   UNL     1      -6.478   2.633  -2.045  1.00  0.00    -0.271 OA
BRANCH  24  31
ATOM     31  O   UNL     1      -5.124  -4.054   0.297  1.00  0.00    -0.508 OA
ATOM     32  H   UNL     1      -5.865  -4.455  -0.266  1.00  0.00     0.293 HD
ENDBRANCH  24  31
ENDBRANCH  16  19
ENDBRANCH  15  16
ENDBRANCH   1  15
TORSDOF 9
