REMARK SMILES O=c1[nH]c(=O)n(C2CCCO2)cc1F.O=c1cc[nH]c(=O)[nH]1
REMARK SMILES IDX 21 1 20 2 19 3 18 4 17 5 16 6 15 7 22 8
REMARK H PARENT 19 9 22 10
REMARK Flexibility Score: inf
ROOT
ATOM      1  O   UNL     1      -2.106  -1.461  -0.541  1.00  0.00    -0.248 OA
ATOM      2  C   UNL     1      -1.089  -0.762  -0.281  1.00  0.00     0.325 A 
ATOM      3  N   UNL     1       0.127  -1.358  -0.140  1.00  0.00    -0.314 N 
ATOM      4  C   UNL     1       1.234  -0.621   0.140  1.00  0.00     0.093 A 
ATOM      5  C   UNL     1       1.132   0.761   0.288  1.00  0.00     0.089 A 
ATOM      6  C   UNL     1      -0.121   1.356   0.141  1.00  0.00     0.253 A 
ATOM      7  O   UNL     1      -0.245   2.603   0.269  1.00  0.00    -0.269 OA
ATOM      8  N   UNL     1      -1.209   0.587  -0.140  1.00  0.00    -0.274 N 
ATOM      9  H   UNL     1       0.217  -2.394  -0.249  1.00  0.00     0.171 HD
ATOM     10  H   UNL     1      -2.146   1.038  -0.249  1.00  0.00     0.175 HD
ENDROOT
TORSDOF 0
