REMARK SMILES COC(=O)C1=C(C)NC(C)=C(C(=O)OCCN2CCN(C(c3ccccc3)c3ccccc3)CC2)C1c1cccc([N+](=O)[O-])c1
REMARK SMILES IDX 15 1 14 2 12 3 13 4 11 5 5 6 6 7 36 8 7 9 8 10 9 11 10 13
REMARK SMILES IDX 3 14 4 15 2 16 1 17 37 18 45 19 38 20 41 21 39 22 40 23
REMARK SMILES IDX 42 24 44 25 43 26 16 27 17 28 18 29 35 30 19 31 34 32 20 33
REMARK SMILES IDX 21 34 22 35 23 36 27 37 24 38 26 39 25 40 28 41 29 42 33 43
REMARK SMILES IDX 30 44 32 45 31 46
REMARK H PARENT 8 12
REMARK Flexibility Score: inf
ROOT
ATOM      1  C   UNL     1       0.148  -2.489  -1.634  1.00  0.00     0.248 C 
ENDROOT
BRANCH   1   2
ATOM      2  O   UNL     1      -0.973  -2.504  -0.752  1.00  0.00    -0.461 OA
BRANCH   2   3
ATOM      3  C   UNL     1      -1.938  -1.485  -0.700  1.00  0.00     0.336 C 
ATOM      4  O   UNL     1      -1.945  -0.586  -1.587  1.00  0.00    -0.246 OA
BRANCH   3   5
ATOM      5  C   UNL     1      -2.959  -1.429   0.395  1.00  0.00     0.068 C 
ATOM      6  C   UNL     1      -4.532   0.045   1.772  1.00  0.00     0.068 C 
ATOM      7  C   UNL     1      -4.725  -0.989   2.623  1.00  0.00     0.023 C 
ATOM      8  C   UNL     1      -3.910  -0.229   0.410  1.00  0.00     0.098 C 
ATOM      9  C   UNL     1      -5.415  -0.838   3.955  1.00  0.00     0.065 C 
ATOM     10  N   UNL     1      -4.170  -2.269   2.299  1.00  0.00    -0.362 N 
ATOM     11  C   UNL     1      -3.141  -2.417   1.308  1.00  0.00     0.023 C 
ATOM     12  H   UNL     1      -4.416  -3.086   2.898  1.00  0.00     0.166 HD
ATOM     13  C   UNL     1      -2.314  -3.676   1.343  1.00  0.00     0.065 C 
BRANCH   6  14
ATOM     14  C   UNL     1      -4.925   1.448   2.082  1.00  0.00     0.336 C 
ATOM     15  O   UNL     1      -5.867   1.703   2.877  1.00  0.00    -0.246 OA
BRANCH  14  16
ATOM     16  O   UNL     1      -4.244   2.498   1.462  1.00  0.00    -0.466 OA
ATOM     17  C   UNL     1      -4.513   3.868   1.738  1.00  0.00     0.282 C 
ENDBRANCH  14  16
ENDBRANCH   6  14
BRANCH   8  18
ATOM     18  C   UNL     1      -5.009  -0.352  -0.642  1.00  0.00    -0.029 A 
ATOM     19  C   UNL     1      -5.563   0.814  -1.198  1.00  0.00     0.090 A 
ATOM     20  C   UNL     1      -5.531  -1.606  -1.035  1.00  0.00     0.005 A 
ATOM     21  C   UNL     1      -6.599   0.741  -2.149  1.00  0.00     0.269 A 
ATOM     22  C   UNL     1      -6.541  -1.687  -1.998  1.00  0.00     0.007 A 
ATOM     23  C   UNL     1      -7.071  -0.522  -2.551  1.00  0.00     0.085 A 
BRANCH  21  24
ATOM     24  N   UNL     1      -7.186   1.942  -2.693  1.00  0.00     0.062 N 
ATOM     25  O   UNL     1      -8.152   1.861  -3.668  1.00  0.00    -0.258 OA
ATOM     26  O   UNL     1      -6.866   3.071  -2.255  1.00  0.00    -0.258 OA
ENDBRANCH  21  24
ENDBRANCH   8  18
ENDBRANCH   3   5
ENDBRANCH   2   3
ENDBRANCH   1   2
BRANCH   1  27
ATOM     27  C   UNL     1       1.317  -1.738  -0.996  1.00  0.00     0.126 C 
BRANCH  27  28
ATOM     28  N   UNL     1       0.932  -0.342  -0.707  1.00  0.00    -0.297 NA
ATOM     29  C   UNL     1       1.241   0.581  -1.820  1.00  0.00     0.100 C 
ATOM     30  C   UNL     1       1.462   0.146   0.582  1.00  0.00     0.100 C 
ATOM     31  C   UNL     1       2.688   1.130  -1.774  1.00  0.00     0.101 C 
ATOM     32  C   UNL     1       2.973   0.466   0.528  1.00  0.00     0.101 C 
ATOM     33  N   UNL     1       3.506   0.329  -0.846  1.00  0.00    -0.290 NA
BRANCH  33  34
ATOM     34  C   UNL     1       4.969   0.597  -0.988  1.00  0.00     0.117 C 
BRANCH  34  35
ATOM     35  C   UNL     1       5.825  -0.619  -0.646  1.00  0.00    -0.026 A 
ATOM     36  C   UNL     1       5.272  -1.853  -0.236  1.00  0.00     0.006 A 
ATOM     37  C   UNL     1       7.221  -0.541  -0.844  1.00  0.00     0.006 A 
ATOM     38  C   UNL     1       6.096  -2.951   0.031  1.00  0.00     0.000 A 
ATOM     39  C   UNL     1       8.041  -1.645  -0.591  1.00  0.00     0.000 A 
ATOM     40  C   UNL     1       7.482  -2.846  -0.138  1.00  0.00     0.000 A 
ENDBRANCH  34  35
BRANCH  34  41
ATOM     41  C   UNL     1       5.422   1.861  -0.258  1.00  0.00    -0.026 A 
ATOM     42  C   UNL     1       5.386   3.100  -0.927  1.00  0.00     0.006 A 
ATOM     43  C   UNL     1       5.834   1.822   1.089  1.00  0.00     0.006 A 
ATOM     44  C   UNL     1       5.749   4.272  -0.260  1.00  0.00     0.000 A 
ATOM     45  C   UNL     1       6.194   2.999   1.753  1.00  0.00     0.000 A 
ATOM     46  C   UNL     1       6.150   4.223   1.077  1.00  0.00     0.000 A 
ENDBRANCH  34  41
ENDBRANCH  33  34
ENDBRANCH  27  28
ENDBRANCH   1  27
TORSDOF 12
