REMARK SMILES CC(C(=O)O)c1ccc(CC2CCCC2=O)cc1
REMARK SMILES IDX 6 1 7 2 8 3 9 4 17 5 18 6 2 7 1 8 3 9 4 10 5 11 10 13 11 14
REMARK SMILES IDX 12 15 15 16 13 17 14 18 16 19
REMARK H PARENT 5 12
REMARK Flexibility Score: inf
ROOT
ATOM      1  C   UNL     1       2.487   0.244  -0.036  1.00  0.00    -0.034 A 
ATOM      2  C   UNL     1       1.786   1.462  -0.003  1.00  0.00     0.005 A 
ATOM      3  C   UNL     1       0.472   1.538  -0.473  1.00  0.00     0.004 A 
ATOM      4  C   UNL     1      -0.165   0.399  -0.987  1.00  0.00    -0.047 A 
ATOM      5  C   UNL     1       0.530  -0.819  -1.023  1.00  0.00     0.004 A 
ATOM      6  C   UNL     1       1.844  -0.897  -0.553  1.00  0.00     0.005 A 
ENDROOT
BRANCH   1   7
ATOM      7  C   UNL     1       3.911   0.173   0.477  1.00  0.00     0.126 C 
ATOM      8  C   UNL     1       4.891  -0.194  -0.645  1.00  0.00     0.025 C 
BRANCH   7   9
ATOM      9  C   UNL     1       4.009  -0.776   1.641  1.00  0.00     0.310 C 
ATOM     10  O   UNL     1       4.150  -2.015   1.453  1.00  0.00    -0.252 OA
BRANCH   9  11
ATOM     11  O   UNL     1       3.895  -0.284   2.938  1.00  0.00    -0.481 OA
ATOM     12  H   UNL     1       3.940  -0.907   3.735  1.00  0.00     0.296 HD
ENDBRANCH   9  11
ENDBRANCH   7   9
ENDBRANCH   1   7
BRANCH   4  13
ATOM     13  C   UNL     1      -1.589   0.484  -1.477  1.00  0.00     0.047 C 
BRANCH  13  14
ATOM     14  C   UNL     1      -2.598   0.578  -0.314  1.00  0.00     0.060 C 
ATOM     15  C   UNL     1      -4.018   0.865  -0.821  1.00  0.00     0.012 C 
ATOM     16  C   UNL     1      -2.753  -0.707   0.428  1.00  0.00     0.136 C 
ATOM     17  C   UNL     1      -4.970   0.008   0.019  1.00  0.00     0.009 C 
ATOM     18  C   UNL     1      -4.156  -1.169   0.541  1.00  0.00     0.076 C 
ATOM     19  O   UNL     1      -1.821  -1.302   0.947  1.00  0.00    -0.299 OA
ENDBRANCH  13  14
ENDBRANCH   4  13
TORSDOF 5
