REMARK SMILES Cc1ccc(NC(=O)C2(c3ccc4c(c3)OC(F)(F)O4)CC2)nc1-c1cccc(C(=O)O)c1
REMARK SMILES IDX 1 1 2 2 3 3 4 4 5 5 23 6 24 7 25 8 33 9 26 10 29 11 27 12
REMARK SMILES IDX 28 13 30 14 31 15 32 16 6 18 7 19 8 21 9 22 21 23 22 24
REMARK SMILES IDX 10 25 11 26 15 27 12 28 14 29 13 30 16 31 20 32 17 33 18 34
REMARK SMILES IDX 19 35
REMARK H PARENT 32 17 6 20
REMARK Flexibility Score: inf
ROOT
ATOM      1  C   UNL     1       4.320   1.727   2.527  1.00  0.00     0.047 C 
ATOM      2  C   UNL     1       3.019   1.114   2.079  1.00  0.00    -0.025 A 
ATOM      3  C   UNL     1       2.119   0.642   3.043  1.00  0.00     0.009 A 
ATOM      4  C   UNL     1       0.923   0.037   2.656  1.00  0.00     0.047 A 
ATOM      5  C   UNL     1       0.618  -0.084   1.298  1.00  0.00     0.133 A 
ATOM      6  N   UNL     1       1.494   0.393   0.374  1.00  0.00    -0.230 NA
ATOM      7  C   UNL     1       2.665   0.999   0.712  1.00  0.00     0.076 A 
ENDROOT
BRANCH   7   8
ATOM      8  C   UNL     1       3.541   1.473  -0.382  1.00  0.00     0.001 A 
ATOM      9  C   UNL     1       3.928   0.581  -1.396  1.00  0.00     0.026 A 
ATOM     10  C   UNL     1       3.945   2.815  -0.451  1.00  0.00     0.010 A 
ATOM     11  C   UNL     1       4.744   1.013  -2.459  1.00  0.00     0.060 A 
ATOM     12  C   UNL     1       4.753   3.251  -1.503  1.00  0.00     0.002 A 
ATOM     13  C   UNL     1       5.154   2.357  -2.501  1.00  0.00     0.016 A 
BRANCH  11  14
ATOM     14  C   UNL     1       5.164   0.069  -3.521  1.00  0.00     0.335 C 
ATOM     15  O   UNL     1       4.787  -1.135  -3.491  1.00  0.00    -0.246 OA
BRANCH  14  16
ATOM     16  O   UNL     1       5.981   0.501  -4.564  1.00  0.00    -0.478 OA
ATOM     17  H   UNL     1       6.279  -0.141  -5.290  1.00  0.00     0.297 HD
ENDBRANCH  14  16
ENDBRANCH  11  14
ENDBRANCH   7   8
BRANCH   5  18
ATOM     18  N   UNL     1      -0.595  -0.738   0.891  1.00  0.00    -0.310 N 
ATOM     19  C   UNL     1      -1.085  -0.737  -0.458  1.00  0.00     0.236 C 
ATOM     20  H   UNL     1      -1.155  -1.248   1.611  1.00  0.00     0.171 HD
ATOM     21  O   UNL     1      -0.635   0.078  -1.307  1.00  0.00    -0.274 OA
BRANCH  19  22
ATOM     22  C   UNL     1      -2.207  -1.653  -0.846  1.00  0.00     0.075 C 
ATOM     23  C   UNL     1      -1.986  -2.493  -2.100  1.00  0.00     0.023 C 
ATOM     24  C   UNL     1      -1.916  -3.145  -0.726  1.00  0.00     0.023 C 
BRANCH  22  25
ATOM     25  C   UNL     1      -3.619  -1.222  -0.559  1.00  0.00    -0.028 A 
ATOM     26  C   UNL     1      -4.338  -0.453  -1.512  1.00  0.00     0.009 A 
ATOM     27  C   UNL     1      -4.212  -1.525   0.689  1.00  0.00     0.055 A 
ATOM     28  C   UNL     1      -5.648  -0.018  -1.236  1.00  0.00     0.051 A 
ATOM     29  C   UNL     1      -5.509  -1.076   0.921  1.00  0.00     0.173 A 
ATOM     30  C   UNL     1      -6.198  -0.355  -0.001  1.00  0.00     0.172 A 
ATOM     31  O   UNL     1      -6.291  -1.256   2.046  1.00  0.00    -0.395 OA
ATOM     32  O   UNL     1      -7.450  -0.046   0.498  1.00  0.00    -0.395 OA
ATOM     33  C   UNL     1      -7.550  -0.607   1.815  1.00  0.00     0.586 C 
ATOM     34  F   UNL     1      -8.578  -1.529   1.866  1.00  0.00    -0.125 F 
ATOM     35  F   UNL     1      -7.751   0.394   2.748  1.00  0.00    -0.125 F 
ENDBRANCH  22  25
ENDBRANCH  19  22
ENDBRANCH   5  18
TORSDOF 6
