REMARK SMILES C=C(C)[C@@H]1CCC(C)=C[C@H]1c1c(O)cc(CCCCC)cc1O
REMARK SMILES IDX 16 1 17 2 18 3 19 4 20 5 15 6 14 7 21 8 12 9 22 10 11 11
REMARK SMILES IDX 13 12 23 14 10 16 9 17 4 18 7 19 5 20 8 21 6 22 2 23 3 24
REMARK SMILES IDX 1 25
REMARK H PARENT 13 13 23 15
REMARK Flexibility Score: inf
ROOT
ATOM      1  C   UNL     1       3.377   0.958  -0.454  1.00  0.00     0.036 C 
ENDROOT
BRANCH   1   2
ATOM      2  C   UNL     1       3.962  -0.120  -1.382  1.00  0.00     0.005 C 
BRANCH   2   3
ATOM      3  C   UNL     1       5.247   0.326  -2.106  1.00  0.00     0.000 C 
BRANCH   3   4
ATOM      4  C   UNL     1       6.377   0.823  -1.186  1.00  0.00    -0.003 C 
ATOM      5  C   UNL     1       6.867  -0.251  -0.209  1.00  0.00     0.004 C 
ENDBRANCH   3   4
ENDBRANCH   2   3
ENDBRANCH   1   2
BRANCH   1   6
ATOM      6  C   UNL     1       1.978   0.606  -0.016  1.00  0.00    -0.041 A 
ATOM      7  C   UNL     1       1.757  -0.466   0.858  1.00  0.00     0.050 A 
ATOM      8  C   UNL     1       0.879   1.333  -0.494  1.00  0.00     0.050 A 
ATOM      9  C   UNL     1       0.463  -0.806   1.265  1.00  0.00     0.123 A 
ATOM     10  C   UNL     1      -0.423   1.024  -0.075  1.00  0.00     0.123 A 
ATOM     11  C   UNL     1      -0.649  -0.049   0.826  1.00  0.00     0.043 A 
BRANCH   9  12
ATOM     12  O   UNL     1       0.280  -1.906   2.105  1.00  0.00    -0.507 OA
ATOM     13  H   UNL     1       1.059  -2.482   2.404  1.00  0.00     0.293 HD
ENDBRANCH   9  12
BRANCH  10  14
ATOM     14  O   UNL     1      -1.488   1.786  -0.552  1.00  0.00    -0.507 OA
ATOM     15  H   UNL     1      -1.351   2.564  -1.187  1.00  0.00     0.293 HD
ENDBRANCH  10  14
BRANCH  11  16
ATOM     16  C   UNL     1      -2.050  -0.429   1.312  1.00  0.00     0.056 C 
ATOM     17  C   UNL     1      -2.897   0.757   1.697  1.00  0.00    -0.019 C 
ATOM     18  C   UNL     1      -2.791  -1.399   0.364  1.00  0.00     0.026 C 
ATOM     19  C   UNL     1      -4.232   0.648   1.868  1.00  0.00    -0.077 C 
ATOM     20  C   UNL     1      -4.146  -1.780   0.992  1.00  0.00     0.013 C 
ATOM     21  C   UNL     1      -5.012   1.843   2.344  1.00  0.00     0.039 C 
ATOM     22  C   UNL     1      -5.010  -0.578   1.427  1.00  0.00     0.031 C 
BRANCH  18  23
ATOM     23  C   UNL     1      -2.923  -0.961  -1.101  1.00  0.00    -0.076 C 
ATOM     24  C   UNL     1      -2.301  -1.808  -2.186  1.00  0.00     0.039 C 
ATOM     25  C   UNL     1      -3.667   0.092  -1.487  1.00  0.00     0.008 C 
ENDBRANCH  18  23
ENDBRANCH  11  16
ENDBRANCH   1   6
TORSDOF 8
