REMARK SMILES CC(=O)Oc1ccc(C(c2ccc(OC(C)=O)cc2)c2ccccn2)cc1
REMARK SMILES IDX 9 1 8 2 5 3 6 4 27 5 7 6 26 7 4 8 2 9 1 10 3 11 10 12 11 13
REMARK SMILES IDX 19 14 12 15 18 16 13 17 14 18 15 19 16 20 17 21 20 22 21 23
REMARK SMILES IDX 25 24 22 25 24 26 23 27
REMARK H PARENT
REMARK Flexibility Score: inf
ROOT
ATOM      1  C   UNL     1      -0.055  -1.073   1.319  1.00  0.00     0.098 C 
ENDROOT
BRANCH   1   2
ATOM      2  C   UNL     1       1.229  -0.564   0.683  1.00  0.00    -0.034 A 
ATOM      3  C   UNL     1       3.569   0.493  -0.496  1.00  0.00     0.130 A 
ATOM      4  C   UNL     1       3.103   0.992   0.733  1.00  0.00     0.047 A 
ATOM      5  C   UNL     1       2.867  -0.543  -1.121  1.00  0.00     0.047 A 
ATOM      6  C   UNL     1       1.939   0.475   1.309  1.00  0.00     0.008 A 
ATOM      7  C   UNL     1       1.703  -1.061  -0.548  1.00  0.00     0.008 A 
BRANCH   3   8
ATOM      8  O   UNL     1       4.737   0.972  -1.107  1.00  0.00    -0.427 OA
BRANCH   8   9
ATOM      9  C   UNL     1       5.250   2.268  -0.971  1.00  0.00     0.308 C 
ATOM     10  C   UNL     1       6.635   2.557  -1.441  1.00  0.00     0.139 C 
ATOM     11  O   UNL     1       4.528   3.213  -0.553  1.00  0.00    -0.252 OA
ENDBRANCH   8   9
ENDBRANCH   3   8
ENDBRANCH   1   2
BRANCH   1  12
ATOM     12  C   UNL     1      -1.245  -0.213   0.924  1.00  0.00    -0.034 A 
ATOM     13  C   UNL     1      -1.521   0.080  -0.425  1.00  0.00     0.008 A 
ATOM     14  C   UNL     1      -2.120   0.268   1.913  1.00  0.00     0.008 A 
ATOM     15  C   UNL     1      -2.628   0.859  -0.772  1.00  0.00     0.047 A 
ATOM     16  C   UNL     1      -3.228   1.046   1.564  1.00  0.00     0.047 A 
ATOM     17  C   UNL     1      -3.482   1.362   0.225  1.00  0.00     0.130 A 
BRANCH  17  18
ATOM     18  O   UNL     1      -4.611   2.140  -0.074  1.00  0.00    -0.427 OA
BRANCH  18  19
ATOM     19  C   UNL     1      -4.745   2.976  -1.190  1.00  0.00     0.308 C 
ATOM     20  C   UNL     1      -6.090   3.521  -1.534  1.00  0.00     0.139 C 
ATOM     21  O   UNL     1      -3.737   3.354  -1.846  1.00  0.00    -0.252 OA
ENDBRANCH  18  19
ENDBRANCH  17  18
ENDBRANCH   1  12
BRANCH   1  22
ATOM     22  C   UNL     1      -0.297  -2.545   1.049  1.00  0.00     0.052 A 
ATOM     23  C   UNL     1       0.420  -3.518   1.764  1.00  0.00     0.025 A 
ATOM     24  N   UNL     1      -1.164  -2.940   0.073  1.00  0.00    -0.260 NA
ATOM     25  C   UNL     1       0.218  -4.869   1.479  1.00  0.00     0.003 A 
ATOM     26  C   UNL     1      -1.375  -4.251  -0.218  1.00  0.00     0.111 A 
ATOM     27  C   UNL     1      -0.686  -5.242   0.483  1.00  0.00     0.020 A 
ENDBRANCH   1  22
TORSDOF 7
