REMARK SMILES CC1=C(C(=O)OCCN(Cc2ccccc2)c2ccccc2)C(c2cccc([N+](=O)[O-])c2)C(P2(=O)OCC(C)(C)CO2)=C(C)N1
REMARK SMILES IDX 7 1 6 2 4 3 5 4 3 5 1 6 2 7 45 8 23 9 43 10 33 12 44 13
REMARK SMILES IDX 24 14 25 15 32 16 26 17 28 18 27 19 29 20 31 21 30 22 34 23
REMARK SMILES IDX 35 24 36 25 42 26 37 27 41 28 38 29 39 30 40 31 8 32 9 33
REMARK SMILES IDX 10 34 11 35 12 36 16 37 13 38 15 39 14 40 17 41 18 42 22 43
REMARK SMILES IDX 19 44 21 45 20 46
REMARK H PARENT 45 11
REMARK Flexibility Score: inf
ROOT
ATOM      1  C   UNL     1       3.048   1.117   1.501  1.00  0.00     0.254 C 
ENDROOT
BRANCH   1   2
ATOM      2  O   UNL     1       1.956   0.392   0.927  1.00  0.00    -0.460 OA
BRANCH   2   3
ATOM      3  C   UNL     1       0.639   0.878   0.911  1.00  0.00     0.336 C 
ATOM      4  O   UNL     1       0.320   1.872   1.626  1.00  0.00    -0.246 OA
BRANCH   3   5
ATOM      5  C   UNL     1      -0.402   0.223   0.078  1.00  0.00     0.068 C 
ATOM      6  C   UNL     1       1.214  -0.237  -1.790  1.00  0.00     0.065 C 
ATOM      7  C   UNL     1      -0.140  -0.302  -1.144  1.00  0.00     0.023 C 
ATOM      8  N   UNL     1      -1.198  -0.935  -1.872  1.00  0.00    -0.362 N 
ATOM      9  C   UNL     1      -1.805   0.076   0.660  1.00  0.00     0.099 C 
ATOM     10  C   UNL     1      -2.567  -0.595  -1.604  1.00  0.00     0.024 C 
ATOM     11  H   UNL     1      -0.962  -1.514  -2.713  1.00  0.00     0.166 HD
ATOM     12  C   UNL     1      -2.873   0.001  -0.426  1.00  0.00     0.073 C 
ATOM     13  C   UNL     1      -3.588  -0.886  -2.669  1.00  0.00     0.065 C 
BRANCH   9  14
ATOM     14  C   UNL     1      -1.922  -1.142   1.570  1.00  0.00    -0.029 A 
ATOM     15  C   UNL     1      -1.174  -2.317   1.348  1.00  0.00     0.005 A 
ATOM     16  C   UNL     1      -2.879  -1.145   2.606  1.00  0.00     0.090 A 
ATOM     17  C   UNL     1      -1.369  -3.450   2.140  1.00  0.00     0.007 A 
ATOM     18  C   UNL     1      -3.097  -2.289   3.398  1.00  0.00     0.269 A 
ATOM     19  C   UNL     1      -2.327  -3.440   3.158  1.00  0.00     0.085 A 
BRANCH  18  20
ATOM     20  N   UNL     1      -4.095  -2.281   4.441  1.00  0.00     0.062 N 
ATOM     21  O   UNL     1      -4.862  -1.155   4.672  1.00  0.00    -0.258 OA
ATOM     22  O   UNL     1      -4.289  -3.295   5.140  1.00  0.00    -0.258 OA
ENDBRANCH  18  20
ENDBRANCH   9  14
BRANCH  12  23
ATOM     23  P   UNL     1      -4.519   0.683  -0.068  1.00  0.00     0.360 P 
ATOM     24  O   UNL     1      -4.444   1.485   1.211  1.00  0.00    -0.255 OA
ATOM     25  O   UNL     1      -5.671  -0.555   0.147  1.00  0.00    -0.305 OA
ATOM     26  O   UNL     1      -5.056   1.711  -1.318  1.00  0.00    -0.305 OA
ATOM     27  C   UNL     1      -6.656  -0.432  -0.865  1.00  0.00     0.180 C 
ATOM     28  C   UNL     1      -6.355   2.133  -0.971  1.00  0.00     0.180 C 
ATOM     29  C   UNL     1      -7.381   0.953  -0.881  1.00  0.00     0.013 C 
ATOM     30  C   UNL     1      -8.321   0.991  -2.108  1.00  0.00     0.016 C 
ATOM     31  C   UNL     1      -8.229   1.102   0.396  1.00  0.00     0.016 C 
ENDBRANCH  12  23
ENDBRANCH   3   5
ENDBRANCH   2   3
ENDBRANCH   1   2
BRANCH   1  32
ATOM     32  C   UNL     1       3.634   2.110   0.478  1.00  0.00     0.158 C 
BRANCH  32  33
ATOM     33  N   UNL     1       4.825   1.559  -0.196  1.00  0.00    -0.364 N 
BRANCH  33  34
ATOM     34  C   UNL     1       6.087   2.309  -0.214  1.00  0.00     0.152 C 
BRANCH  34  35
ATOM     35  C   UNL     1       7.138   1.554   0.554  1.00  0.00    -0.029 A 
ATOM     36  C   UNL     1       8.079   0.766  -0.126  1.00  0.00     0.005 A 
ATOM     37  C   UNL     1       7.152   1.589   1.959  1.00  0.00     0.005 A 
ATOM     38  C   UNL     1       9.038   0.041   0.591  1.00  0.00     0.000 A 
ATOM     39  C   UNL     1       8.117   0.868   2.670  1.00  0.00     0.000 A 
ATOM     40  C   UNL     1       9.058   0.092   1.988  1.00  0.00     0.000 A 
ENDBRANCH  34  35
ENDBRANCH  33  34
BRANCH  33  41
ATOM     41  C   UNL     1       4.726   0.364  -0.992  1.00  0.00     0.037 A 
ATOM     42  C   UNL     1       4.425   0.454  -2.358  1.00  0.00     0.026 A 
ATOM     43  C   UNL     1       5.017  -0.890  -0.428  1.00  0.00     0.026 A 
ATOM     44  C   UNL     1       4.387  -0.703  -3.141  1.00  0.00     0.002 A 
ATOM     45  C   UNL     1       4.972  -2.044  -1.212  1.00  0.00     0.002 A 
ATOM     46  C   UNL     1       4.652  -1.952  -2.569  1.00  0.00     0.000 A 
ENDBRANCH  33  41
ENDBRANCH  32  33
ENDBRANCH   1  32
TORSDOF 11
