REMARK SMILES C[C@@H]1C[C@H]2[C@@H]3C[C@H](F)C4=CC(=O)C=C[C@]4(C)[C@@]3(F)[C@@H](O)C[C@]2(C)[C@H]1C(=O)CO
REMARK SMILES IDX 25 1 26 2 24 3 4 4 3 5 22 6 5 7 2 8 23 9 21 10 17 11 6 12
REMARK SMILES IDX 1 13 19 14 18 15 15 16 7 17 9 18 14 19 16 20 8 21 10 22
REMARK SMILES IDX 13 23 11 24 12 25 20 26 27 28 28 29
REMARK H PARENT 20 27 28 30
REMARK Flexibility Score: inf
ROOT
ATOM      1  C   UNL     1      -4.060   0.758  -0.189  1.00  0.00     0.162 C 
ATOM      2  O   UNL     1      -4.097   1.965  -0.380  1.00  0.00    -0.297 OA
ENDROOT
BRANCH   1   3
ATOM      3  C   UNL     1      -2.856   0.184   0.549  1.00  0.00     0.068 C 
ATOM      4  C   UNL     1      -0.633  -0.619   0.646  1.00  0.00     0.002 C 
ATOM      5  C   UNL     1      -1.485  -1.864   0.879  1.00  0.00     0.008 C 
ATOM      6  C   UNL     1      -1.518   0.292  -0.224  1.00  0.00    -0.017 C 
ATOM      7  C   UNL     1       0.807  -0.754   0.091  1.00  0.00     0.037 C 
ATOM      8  C   UNL     1      -2.937  -1.325   0.943  1.00  0.00    -0.003 C 
ATOM      9  C   UNL     1      -1.727  -0.223  -1.689  1.00  0.00     0.012 C 
ATOM     10  C   UNL     1      -0.890   1.709  -0.237  1.00  0.00     0.043 C 
ATOM     11  C   UNL     1       1.473   0.666   0.090  1.00  0.00     0.152 C 
ATOM     12  C   UNL     1       1.657  -1.836   0.826  1.00  0.00     0.049 C 
ATOM     13  C   UNL     1      -3.556  -1.517   2.334  1.00  0.00     0.008 C 
ATOM     14  C   UNL     1       0.600   1.707  -0.698  1.00  0.00     0.154 C 
ATOM     15  F   UNL     1       1.480   1.138   1.401  1.00  0.00    -0.239 F 
ATOM     16  C   UNL     1       2.986   0.555  -0.349  1.00  0.00     0.047 C 
ATOM     17  C   UNL     1       2.966  -1.360   1.488  1.00  0.00     0.194 C 
ATOM     18  C   UNL     1       3.700  -0.267   0.738  1.00  0.00    -0.020 C 
ATOM     19  C   UNL     1       3.613   1.941  -0.508  1.00  0.00    -0.009 C 
ATOM     20  C   UNL     1       3.208  -0.179  -1.697  1.00  0.00     0.024 C 
ATOM     21  F   UNL     1       2.692  -0.914   2.770  1.00  0.00    -0.243 F 
ATOM     22  C   UNL     1       4.962   0.010   1.106  1.00  0.00     0.055 C 
ATOM     23  C   UNL     1       4.868   2.205  -0.137  1.00  0.00     0.048 C 
ATOM     24  C   UNL     1       5.637   1.213   0.615  1.00  0.00     0.178 C 
ATOM     25  O   UNL     1       6.848   1.420   0.887  1.00  0.00    -0.290 OA
BRANCH  14  26
ATOM     26  O   UNL     1       0.689   1.507  -2.082  1.00  0.00    -0.390 OA
ATOM     27  H   UNL     1       0.375   2.342  -2.518  1.00  0.00     0.211 HD
ENDBRANCH  14  26
ENDBRANCH   1   3
BRANCH   1  28
ATOM     28  C   UNL     1      -5.201  -0.098  -0.687  1.00  0.00     0.231 C 
BRANCH  28  29
ATOM     29  O   UNL     1      -6.197   0.684  -1.291  1.00  0.00    -0.389 OA
ATOM     30  H   UNL     1      -6.717   1.101  -0.555  1.00  0.00     0.211 HD
ENDBRANCH  28  29
ENDBRANCH   1  28
TORSDOF 4
