REMARK SMILES CN(CCO)CC(O)Cn1cnc2c1c(=O)n(C)c(=O)n2C
REMARK SMILES IDX 1 1 2 2 3 3 4 4 5 5 6 7 7 8 8 9 9 11 10 12 11 13 14 14 12 15
REMARK SMILES IDX 13 16 15 17 21 18 16 19 17 20 19 21 22 22 18 23 20 24
REMARK H PARENT 5 6 8 10
REMARK Flexibility Score: inf
ROOT
ATOM      1  C   UNL     1       3.045  -0.887  -1.497  1.00  0.00     0.105 C 
ATOM      2  N   UNL     1       2.686   0.280  -0.673  1.00  0.00    -0.301 NA
ENDROOT
BRANCH   2   3
ATOM      3  C   UNL     1       3.802   0.732   0.186  1.00  0.00     0.112 C 
BRANCH   3   4
ATOM      4  C   UNL     1       4.796   1.574  -0.620  1.00  0.00     0.171 C 
BRANCH   4   5
ATOM      5  O   UNL     1       5.757   2.136   0.231  1.00  0.00    -0.395 OA
ATOM      6  H   UNL     1       6.382   1.405   0.477  1.00  0.00     0.210 HD
ENDBRANCH   4   5
ENDBRANCH   3   4
ENDBRANCH   2   3
BRANCH   2   7
ATOM      7  C   UNL     1       1.416   0.099   0.070  1.00  0.00     0.117 C 
BRANCH   7   8
ATOM      8  C   UNL     1       1.470  -0.960   1.209  1.00  0.00     0.148 C 
BRANCH   8   9
ATOM      9  O   UNL     1       1.659  -2.263   0.716  1.00  0.00    -0.390 OA
ATOM     10  H   UNL     1       1.001  -2.415  -0.010  1.00  0.00     0.211 HD
ENDBRANCH   8   9
BRANCH   8  11
ATOM     11  C   UNL     1       0.223  -0.907   2.119  1.00  0.00     0.157 C 
BRANCH  11  12
ATOM     12  N   UNL     1      -1.014  -1.218   1.393  1.00  0.00    -0.322 N 
ATOM     13  C   UNL     1      -1.471  -2.462   1.102  1.00  0.00     0.202 A 
ATOM     14  C   UNL     1      -1.935  -0.395   0.849  1.00  0.00     0.152 A 
ATOM     15  N   UNL     1      -2.625  -2.461   0.390  1.00  0.00    -0.218 NA
ATOM     16  C   UNL     1      -2.889  -1.147   0.249  1.00  0.00     0.167 A 
ATOM     17  C   UNL     1      -2.029   0.995   0.830  1.00  0.00     0.282 A 
ATOM     18  N   UNL     1      -3.950  -0.599  -0.403  1.00  0.00    -0.279 N 
ATOM     19  O   UNL     1      -1.161   1.709   1.400  1.00  0.00    -0.267 OA
ATOM     20  N   UNL     1      -3.097   1.568   0.177  1.00  0.00    -0.261 N 
ATOM     21  C   UNL     1      -4.031   0.774  -0.466  1.00  0.00     0.332 A 
ATOM     22  C   UNL     1      -4.930  -1.451  -1.091  1.00  0.00     0.157 C 
ATOM     23  C   UNL     1      -3.201   3.035   0.094  1.00  0.00     0.159 C 
ATOM     24  O   UNL     1      -4.968   1.313  -1.121  1.00  0.00    -0.247 OA
ENDBRANCH  11  12
ENDBRANCH   8  11
ENDBRANCH   7   8
ENDBRANCH   2   7
TORSDOF 8
