REMARK SMILES COc1ccc(CN(C(=O)[C@@H](N)Cc2c(C)cc(C(N)=O)cc2C)[C@@H](C)c2nc(-c3ccccc3)c[nH]2)cc1C(=O)O
REMARK SMILES IDX 9 1 10 2 8 3 7 4 6 5 3 6 4 7 39 8 5 9 38 10 2 11 1 12 40 13
REMARK SMILES IDX 41 14 42 15 25 17 26 18 27 19 28 20 37 21 29 22 36 23 30 25
REMARK SMILES IDX 31 26 35 27 32 28 34 29 33 30 11 31 12 32 13 35 14 36 15 37
REMARK SMILES IDX 23 38 16 39 17 40 22 41 24 42 18 43 19 44 20 45 21 46
REMARK H PARENT 42 16 37 24 12 33 12 34 20 47 20 48
REMARK Flexibility Score: inf
ROOT
ATOM      1  C   UNL     1      -0.080   0.409  -0.381  1.00  0.00     0.240 C 
ATOM      2  O   UNL     1      -0.229   0.591  -1.624  1.00  0.00    -0.273 OA
ENDROOT
BRANCH   1   3
ATOM      3  N   UNL     1      -1.030   0.969   0.544  1.00  0.00    -0.327 N 
BRANCH   3   4
ATOM      4  C   UNL     1      -0.576   1.981   1.505  1.00  0.00     0.156 C 
BRANCH   4   5
ATOM      5  C   UNL     1      -0.720   3.350   0.901  1.00  0.00    -0.027 A 
ATOM      6  C   UNL     1      -1.049   5.843  -0.376  1.00  0.00     0.133 A 
ATOM      7  C   UNL     1       0.176   5.148  -0.454  1.00  0.00     0.047 A 
ATOM      8  C   UNL     1      -2.125   5.279   0.356  1.00  0.00     0.102 A 
ATOM      9  C   UNL     1       0.335   3.912   0.173  1.00  0.00     0.009 A 
ATOM     10  C   UNL     1      -1.944   4.033   0.986  1.00  0.00     0.025 A 
BRANCH   6  11
ATOM     11  O   UNL     1      -1.221   7.083  -1.012  1.00  0.00    -0.496 OA
ATOM     12  C   UNL     1      -0.233   7.731  -1.808  1.00  0.00     0.278 C 
ENDBRANCH   6  11
BRANCH   8  13
ATOM     13  C   UNL     1      -3.438   5.968   0.471  1.00  0.00     0.339 C 
ATOM     14  O   UNL     1      -4.380   5.432   1.116  1.00  0.00    -0.246 OA
BRANCH  13  15
ATOM     15  O   UNL     1      -3.652   7.209  -0.122  1.00  0.00    -0.478 OA
ATOM     16  H   UNL     1      -4.550   7.666  -0.058  1.00  0.00     0.297 HD
ENDBRANCH  13  15
ENDBRANCH   8  13
ENDBRANCH   4   5
ENDBRANCH   3   4
BRANCH   3  17
ATOM     17  C   UNL     1      -2.453   0.584   0.497  1.00  0.00     0.149 C 
ATOM     18  C   UNL     1      -3.110   1.051  -0.806  1.00  0.00     0.040 C 
BRANCH  17  19
ATOM     19  C   UNL     1      -2.605  -0.900   0.714  1.00  0.00     0.129 A 
ATOM     20  N   UNL     1      -3.445  -1.685   0.003  1.00  0.00    -0.231 NA
ATOM     21  N   UNL     1      -1.981  -1.568   1.705  1.00  0.00    -0.346 N 
ATOM     22  C   UNL     1      -3.321  -2.905   0.569  1.00  0.00     0.088 A 
ATOM     23  C   UNL     1      -2.420  -2.833   1.619  1.00  0.00     0.113 A 
ATOM     24  H   UNL     1      -1.312  -1.180   2.407  1.00  0.00     0.167 HD
BRANCH  22  25
ATOM     25  C   UNL     1      -4.082  -4.097   0.121  1.00  0.00     0.002 A 
ATOM     26  C   UNL     1      -3.928  -5.349   0.752  1.00  0.00     0.010 A 
ATOM     27  C   UNL     1      -4.993  -3.983  -0.945  1.00  0.00     0.010 A 
ATOM     28  C   UNL     1      -4.670  -6.456   0.325  1.00  0.00     0.001 A 
ATOM     29  C   UNL     1      -5.737  -5.091  -1.362  1.00  0.00     0.001 A 
ATOM     30  C   UNL     1      -5.579  -6.325  -0.727  1.00  0.00     0.000 A 
ENDBRANCH  22  25
ENDBRANCH  17  19
ENDBRANCH   3  17
ENDBRANCH   1   3
BRANCH   1  31
ATOM     31  C   UNL     1       1.078  -0.424   0.119  1.00  0.00     0.145 C 
BRANCH  31  32
ATOM     32  N   UNL     1       1.038  -1.764  -0.473  1.00  0.00    -0.320 NA
ATOM     33  H   UNL     1       1.014  -1.688  -1.519  1.00  0.00     0.119 HD
ATOM     34  H   UNL     1       0.153  -2.238  -0.176  1.00  0.00     0.119 HD
ENDBRANCH  31  32
BRANCH  31  35
ATOM     35  C   UNL     1       2.428   0.277  -0.158  1.00  0.00     0.065 C 
BRANCH  35  36
ATOM     36  C   UNL     1       3.627  -0.664  -0.021  1.00  0.00    -0.040 A 
ATOM     37  C   UNL     1       4.291  -1.164  -1.178  1.00  0.00    -0.047 A 
ATOM     38  C   UNL     1       4.073  -1.093   1.263  1.00  0.00    -0.047 A 
ATOM     39  C   UNL     1       3.923  -0.721  -2.574  1.00  0.00     0.044 C 
ATOM     40  C   UNL     1       5.356  -2.070  -1.037  1.00  0.00     0.017 A 
ATOM     41  C   UNL     1       5.111  -2.032   1.361  1.00  0.00     0.017 A 
ATOM     42  C   UNL     1       3.417  -0.641   2.553  1.00  0.00     0.044 C 
ATOM     43  C   UNL     1       5.753  -2.533   0.223  1.00  0.00     0.040 A 
BRANCH  43  44
ATOM     44  C   UNL     1       6.838  -3.540   0.369  1.00  0.00     0.248 C 
ATOM     45  N   UNL     1       7.227  -4.388  -0.717  1.00  0.00    -0.366 N 
ATOM     46  O   UNL     1       7.421  -3.673   1.481  1.00  0.00    -0.270 OA
ATOM     47  H   UNL     1       6.689  -4.433  -1.612  1.00  0.00     0.159 HD
ATOM     48  H   UNL     1       8.023  -5.051  -0.599  1.00  0.00     0.159 HD
ENDBRANCH  43  44
ENDBRANCH  35  36
ENDBRANCH  31  35
ENDBRANCH   1  31
TORSDOF 14
