REMARK SMILES CC(C)Cc1ccc([C@H](C)C(=O)O)cc1
REMARK SMILES IDX 5 1 6 2 7 3 8 4 14 5 15 6 4 7 2 8 1 9 3 10 9 11 10 12 11 13
REMARK SMILES IDX 12 14 13 15
REMARK H PARENT 13 16
REMARK Flexibility Score: inf
ROOT
ATOM      1  C   UNL     1      -0.880  -0.365   0.712  1.00  0.00    -0.048 A 
ATOM      2  C   UNL     1      -0.094  -1.507   0.493  1.00  0.00     0.004 A 
ATOM      3  C   UNL     1       1.287  -1.392   0.314  1.00  0.00     0.005 A 
ATOM      4  C   UNL     1       1.908  -0.131   0.345  1.00  0.00    -0.034 A 
ATOM      5  C   UNL     1       1.116   1.013   0.561  1.00  0.00     0.005 A 
ATOM      6  C   UNL     1      -0.265   0.896   0.741  1.00  0.00     0.004 A 
ENDROOT
BRANCH   1   7
ATOM      7  C   UNL     1      -2.373  -0.492   0.879  1.00  0.00     0.038 C 
BRANCH   7   8
ATOM      8  C   UNL     1      -3.092  -0.702  -0.471  1.00  0.00    -0.013 C 
ATOM      9  C   UNL     1      -4.572  -1.030  -0.235  1.00  0.00     0.008 C 
ATOM     10  C   UNL     1      -2.967   0.532  -1.377  1.00  0.00     0.008 C 
ENDBRANCH   7   8
ENDBRANCH   1   7
BRANCH   4  11
ATOM     11  C   UNL     1       3.407  -0.019   0.151  1.00  0.00     0.126 C 
ATOM     12  C   UNL     1       4.090   0.521   1.413  1.00  0.00     0.025 C 
BRANCH  11  13
ATOM     13  C   UNL     1       3.723   0.826  -1.054  1.00  0.00     0.310 C 
ATOM     14  O   UNL     1       3.870   0.279  -2.180  1.00  0.00    -0.252 OA
BRANCH  13  15
ATOM     15  O   UNL     1       3.807   2.212  -0.945  1.00  0.00    -0.481 OA
ATOM     16  H   UNL     1       4.002   2.786  -1.757  1.00  0.00     0.296 HD
ENDBRANCH  13  15
ENDBRANCH  11  13
ENDBRANCH   4  11
TORSDOF 5
