REMARK SMILES NC(=O)C1(N2CCCCC2)CCN(CCCC(=O)c2ccc(F)cc2)CC1
REMARK SMILES IDX 15 1 14 2 13 3 4 4 11 5 27 6 12 7 26 8 2 9 1 10 3 13 5 14
REMARK SMILES IDX 6 15 10 16 7 17 9 18 8 19 16 20 17 21 18 22 19 23 20 24
REMARK SMILES IDX 25 25 21 26 24 27 22 28 23 29
REMARK H PARENT 1 11 1 12
REMARK Flexibility Score: inf
ROOT
ATOM      1  C   UNL     1       2.831  -0.893  -0.390  1.00  0.00     0.024 C 
ENDROOT
BRANCH   1   2
ATOM      2  C   UNL     1       1.796  -1.193   0.722  1.00  0.00     0.085 C 
BRANCH   2   3
ATOM      3  N   UNL     1       0.381  -0.877   0.408  1.00  0.00    -0.303 NA
ATOM      4  C   UNL     1      -2.337  -0.432   0.071  1.00  0.00     0.103 C 
ATOM      5  C   UNL     1      -1.593  -1.250  -1.047  1.00  0.00     0.048 C 
ATOM      6  C   UNL     1      -1.451   0.831   0.328  1.00  0.00     0.048 C 
ATOM      7  C   UNL     1      -0.053  -1.215  -0.956  1.00  0.00     0.087 C 
ATOM      8  C   UNL     1      -0.036   0.474   0.831  1.00  0.00     0.087 C 
BRANCH   4   9
ATOM      9  C   UNL     1      -2.476  -1.263   1.358  1.00  0.00     0.238 C 
ATOM     10  N   UNL     1      -2.660  -0.654   2.640  1.00  0.00    -0.368 N 
ATOM     11  H   UNL     1      -2.684   0.378   2.778  1.00  0.00     0.159 HD
ATOM     12  H   UNL     1      -2.787  -1.258   3.483  1.00  0.00     0.159 HD
ATOM     13  O   UNL     1      -2.467  -2.523   1.298  1.00  0.00    -0.273 OA
ENDBRANCH   4   9
BRANCH   4  14
ATOM     14  N   UNL     1      -3.690  -0.048  -0.460  1.00  0.00    -0.289 NA
ATOM     15  C   UNL     1      -4.612  -1.190  -0.730  1.00  0.00     0.085 C 
ATOM     16  C   UNL     1      -4.343   1.114   0.201  1.00  0.00     0.085 C 
ATOM     17  C   UNL     1      -5.789  -1.247   0.255  1.00  0.00     0.016 C 
ATOM     18  C   UNL     1      -5.809   1.264  -0.221  1.00  0.00     0.016 C 
ATOM     19  C   UNL     1      -6.634   0.035   0.192  1.00  0.00     0.003 C 
ENDBRANCH   4  14
ENDBRANCH   2   3
ENDBRANCH   1   2
BRANCH   1  20
ATOM     20  C   UNL     1       3.033   0.602  -0.665  1.00  0.00     0.082 C 
BRANCH  20  21
ATOM     21  C   UNL     1       4.247   0.827  -1.526  1.00  0.00     0.162 C 
ATOM     22  O   UNL     1       4.085   0.869  -2.777  1.00  0.00    -0.294 OA
BRANCH  21  23
ATOM     23  C   UNL     1       5.619   0.965  -0.962  1.00  0.00     0.018 A 
ATOM     24  C   UNL     1       5.889   0.729   0.402  1.00  0.00     0.015 A 
ATOM     25  C   UNL     1       6.687   1.335  -1.805  1.00  0.00     0.015 A 
ATOM     26  C   UNL     1       7.188   0.864   0.903  1.00  0.00     0.040 A 
ATOM     27  C   UNL     1       7.982   1.469  -1.297  1.00  0.00     0.040 A 
ATOM     28  C   UNL     1       8.233   1.234   0.055  1.00  0.00     0.123 A 
ATOM     29  F   UNL     1       9.491   1.363   0.545  1.00  0.00    -0.207 F 
ENDBRANCH  21  23
ENDBRANCH  20  21
ENDBRANCH   1  20
TORSDOF 7
