REMARK SMILES CN1CC[C@]23c4c5ccc(OCCN6CCOCC6)c4O[C@H]2[C@@H](O)C=C[C@H]3[C@H]1C5
REMARK SMILES IDX 12 1 11 2 10 3 22 4 21 5 5 6 23 7 20 8 6 9 4 10 27 11 25 12
REMARK SMILES IDX 7 13 3 14 28 15 26 16 9 17 8 18 29 19 2 20 1 21 24 22 13 24
REMARK SMILES IDX 14 25 15 26 19 27 16 28 18 29 17 30
REMARK H PARENT 24 23
REMARK Flexibility Score: inf
ROOT
ATOM      1  C   UNL     1       3.125  -0.286  -1.343  1.00  0.00     0.245 C 
ENDROOT
BRANCH   1   2
ATOM      2  O   UNL     1       1.748  -0.644  -1.454  1.00  0.00    -0.488 OA
BRANCH   2   3
ATOM      3  C   UNL     1       0.668   0.133  -1.004  1.00  0.00     0.161 A 
ATOM      4  C   UNL     1      -2.342  -1.944  -1.048  1.00  0.00     0.217 C 
ATOM      5  O   UNL     1      -0.957  -1.711  -1.335  1.00  0.00    -0.482 OA
ATOM      6  C   UNL     1      -2.956  -0.512  -0.800  1.00  0.00     0.048 C 
ATOM      7  C   UNL     1      -2.495  -2.888   0.176  1.00  0.00     0.178 C 
ATOM      8  C   UNL     1      -0.618  -0.403  -1.060  1.00  0.00     0.165 A 
ATOM      9  C   UNL     1      -1.714   0.318  -0.693  1.00  0.00     0.012 A 
ATOM     10  C   UNL     1      -3.824  -0.023  -2.002  1.00  0.00     0.032 C 
ATOM     11  C   UNL     1      -3.739  -0.351   0.523  1.00  0.00     0.044 C 
ATOM     12  C   UNL     1      -2.354  -2.147   1.486  1.00  0.00     0.004 C 
ATOM     13  C   UNL     1      -1.584   1.518   0.010  1.00  0.00    -0.039 A 
ATOM     14  C   UNL     1      -5.046   0.812  -1.569  1.00  0.00     0.085 C 
ATOM     15  C   UNL     1      -4.024   1.180   0.695  1.00  0.00     0.068 C 
ATOM     16  C   UNL     1      -2.972  -0.971   1.670  1.00  0.00    -0.022 C 
ATOM     17  C   UNL     1       0.811   1.434  -0.464  1.00  0.00     0.051 A 
ATOM     18  C   UNL     1      -0.306   2.102   0.083  1.00  0.00     0.008 A 
ATOM     19  C   UNL     1      -2.710   1.984   0.906  1.00  0.00     0.055 C 
ATOM     20  N   UNL     1      -4.706   1.769  -0.496  1.00  0.00    -0.302 NA
ATOM     21  C   UNL     1      -5.892   2.548  -0.110  1.00  0.00     0.105 C 
BRANCH   7  22
ATOM     22  O   UNL     1      -1.554  -3.926   0.121  1.00  0.00    -0.385 OA
ATOM     23  H   UNL     1      -1.834  -4.527  -0.618  1.00  0.00     0.211 HD
ENDBRANCH   7  22
ENDBRANCH   2   3
ENDBRANCH   1   2
BRANCH   1  24
ATOM     24  C   UNL     1       3.622  -0.490   0.092  1.00  0.00     0.126 C 
BRANCH  24  25
ATOM     25  N   UNL     1       5.017  -0.018   0.227  1.00  0.00    -0.295 NA
ATOM     26  C   UNL     1       5.290   0.419   1.612  1.00  0.00     0.113 C 
ATOM     27  C   UNL     1       5.983  -1.062  -0.165  1.00  0.00     0.113 C 
ATOM     28  C   UNL     1       6.798   0.650   1.837  1.00  0.00     0.175 C 
ATOM     29  C   UNL     1       7.423  -0.513  -0.065  1.00  0.00     0.175 C 
ATOM     30  O   UNL     1       7.482   0.735   0.603  1.00  0.00    -0.379 OA
ENDBRANCH  24  25
ENDBRANCH   1  24
TORSDOF 5
