REMARK SMILES OC(c1ccccc1)(c1ccccc1)C12CC[N+](CCOCc3ccccc3)(CC1)CC2
REMARK SMILES IDX 19 1 18 2 15 3 16 4 30 5 32 6 17 7 29 8 31 9 2 10 1 11 3 13
REMARK SMILES IDX 4 14 8 15 5 16 7 17 6 18 9 19 10 20 14 21 11 22 13 23 12 24
REMARK SMILES IDX 20 25 21 26 22 27 23 28 24 29 28 30 25 31 27 32 26 33
REMARK H PARENT 1 12
REMARK Flexibility Score: inf
ROOT
ATOM      1  C   UNL     1       2.350   1.154   0.741  1.00  0.00     0.292 C 
ENDROOT
BRANCH   1   2
ATOM      2  N   UNL     1       0.995   0.531   0.569  1.00  0.00    -0.322 N 
ATOM      3  C   UNL     1      -1.474  -0.429   0.305  1.00  0.00     0.024 C 
ATOM      4  C   UNL     1      -0.535  -1.387   1.111  1.00  0.00     0.072 C 
ATOM      5  C   UNL     1      -0.772  -0.198  -1.068  1.00  0.00     0.072 C 
ATOM      6  C   UNL     1      -1.443   0.907   1.105  1.00  0.00     0.072 C 
ATOM      7  C   UNL     1       0.877  -0.772   1.284  1.00  0.00     0.264 C 
ATOM      8  C   UNL     1       0.673   0.325  -0.873  1.00  0.00     0.264 C 
ATOM      9  C   UNL     1      -0.009   1.482   1.138  1.00  0.00     0.264 C 
BRANCH   3  10
ATOM     10  C   UNL     1      -2.937  -1.083   0.154  1.00  0.00     0.121 C 
BRANCH  10  11
ATOM     11  O   UNL     1      -2.749  -2.455  -0.140  1.00  0.00    -0.380 OA
ATOM     12  H   UNL     1      -2.380  -2.538  -1.058  1.00  0.00     0.212 HD
ENDBRANCH  10  11
BRANCH  10  13
ATOM     13  C   UNL     1      -3.876  -0.522  -0.954  1.00  0.00    -0.011 A 
ATOM     14  C   UNL     1      -4.910  -1.362  -1.437  1.00  0.00     0.007 A 
ATOM     15  C   UNL     1      -3.858   0.813  -1.426  1.00  0.00     0.007 A 
ATOM     16  C   UNL     1      -5.824  -0.915  -2.394  1.00  0.00     0.000 A 
ATOM     17  C   UNL     1      -4.776   1.253  -2.384  1.00  0.00     0.000 A 
ATOM     18  C   UNL     1      -5.752   0.389  -2.874  1.00  0.00     0.000 A 
ENDBRANCH  10  13
BRANCH  10  19
ATOM     19  C   UNL     1      -3.698  -1.008   1.492  1.00  0.00    -0.011 A 
ATOM     20  C   UNL     1      -4.436   0.144   1.852  1.00  0.00     0.007 A 
ATOM     21  C   UNL     1      -3.648  -2.077   2.417  1.00  0.00     0.007 A 
ATOM     22  C   UNL     1      -5.110   0.211   3.074  1.00  0.00     0.000 A 
ATOM     23  C   UNL     1      -4.326  -2.003   3.637  1.00  0.00     0.000 A 
ATOM     24  C   UNL     1      -5.059  -0.862   3.963  1.00  0.00     0.000 A 
ENDBRANCH  10  19
ENDBRANCH   3  10
ENDBRANCH   1   2
BRANCH   1  25
ATOM     25  C   UNL     1       3.584   0.237   0.547  1.00  0.00     0.222 C 
BRANCH  25  26
ATOM     26  O   UNL     1       3.618  -0.380  -0.725  1.00  0.00    -0.371 OA
BRANCH  26  27
ATOM     27  C   UNL     1       4.303   0.420  -1.671  1.00  0.00     0.196 C 
BRANCH  27  28
ATOM     28  C   UNL     1       5.790   0.201  -1.580  1.00  0.00    -0.022 A 
ATOM     29  C   UNL     1       6.322  -1.092  -1.722  1.00  0.00     0.006 A 
ATOM     30  C   UNL     1       6.658   1.282  -1.352  1.00  0.00     0.006 A 
ATOM     31  C   UNL     1       7.702  -1.301  -1.630  1.00  0.00     0.000 A 
ATOM     32  C   UNL     1       8.038   1.070  -1.266  1.00  0.00     0.000 A 
ATOM     33  C   UNL     1       8.559  -0.220  -1.402  1.00  0.00     0.000 A 
ENDBRANCH  27  28
ENDBRANCH  26  27
ENDBRANCH  25  26
ENDBRANCH   1  25
TORSDOF 9
