REMARK SMILES C#CC1(O)CCC2C3CCC4=CC(=O)CCC4C3CCC21CC
REMARK SMILES IDX 21 1 20 2 19 3 18 4 8 5 9 6 10 7 11 8 12 9 13 10 14 11 15 12
REMARK SMILES IDX 16 13 17 14 7 15 6 16 5 17 3 18 22 19 23 20 4 21 2 23 1 24
REMARK H PARENT 4 22
REMARK Flexibility Score: inf
ROOT
ATOM      1  C   UNL     1      -1.984   0.419   0.038  1.00  0.00     0.013 C 
ATOM      2  C   UNL     1      -1.288   1.403   1.046  1.00  0.00     0.011 C 
ATOM      3  C   UNL     1       0.243   1.188   1.188  1.00  0.00     0.005 C 
ATOM      4  C   UNL     1       0.917   0.566  -0.067  1.00  0.00    -0.000 C 
ATOM      5  C   UNL     1       0.258  -0.810  -0.487  1.00  0.00    -0.003 C 
ATOM      6  C   UNL     1       1.072  -2.074  -0.080  1.00  0.00     0.008 C 
ATOM      7  C   UNL     1       2.005  -1.827   1.100  1.00  0.00     0.032 C 
ATOM      8  C   UNL     1       2.988  -0.779   0.681  1.00  0.00    -0.063 C 
ATOM      9  C   UNL     1       4.301  -1.060   0.637  1.00  0.00     0.046 C 
ATOM     10  C   UNL     1       5.234  -0.196  -0.112  1.00  0.00     0.155 C 
ATOM     11  O   UNL     1       6.472  -0.413  -0.043  1.00  0.00    -0.295 OA
ATOM     12  C   UNL     1       4.724   0.939  -0.961  1.00  0.00     0.081 C 
ATOM     13  C   UNL     1       3.211   0.821  -1.216  1.00  0.00     0.016 C 
ATOM     14  C   UNL     1       2.473   0.526   0.105  1.00  0.00     0.019 C 
ATOM     15  C   UNL     1      -1.197  -0.910   0.057  1.00  0.00     0.003 C 
ATOM     16  C   UNL     1      -2.117  -1.929  -0.615  1.00  0.00     0.008 C 
ATOM     17  C   UNL     1      -3.542  -1.456  -0.286  1.00  0.00     0.050 C 
ATOM     18  C   UNL     1      -3.408  -0.104   0.461  1.00  0.00     0.131 C 
ENDROOT
BRANCH   1  19
ATOM     19  C   UNL     1      -2.057   1.015  -1.436  1.00  0.00     0.008 C 
ATOM     20  C   UNL     1      -2.407   2.503  -1.567  1.00  0.00     0.004 C 
ENDBRANCH   1  19
BRANCH  18  21
ATOM     21  O   UNL     1      -4.441   0.763   0.062  1.00  0.00    -0.377 OA
ATOM     22  H   UNL     1      -4.387   1.574   0.634  1.00  0.00     0.212 HD
ENDBRANCH  18  21
BRANCH  18  23
ATOM     23  C   UNL     1      -3.535  -0.376   1.919  1.00  0.00    -0.071 C 
ATOM     24  C   UNL     1      -3.641  -0.600   3.099  1.00  0.00     0.007 C 
ENDBRANCH  18  23
TORSDOF 3
