REMARK SMILES CC1(C)OC(=O)C(OCC2CC2)=C1c1ccc(S(C)(=O)=O)cc1
REMARK SMILES IDX 1 1 2 2 3 3 4 4 5 5 6 6 7 7 13 8 14 9 15 10 23 11 16 12
REMARK SMILES IDX 22 13 17 14 18 15 19 16 20 17 21 18 8 19 9 20 10 21 11 22
REMARK SMILES IDX 12 23
REMARK H PARENT
REMARK Flexibility Score: inf
ROOT
ATOM      1  C   UNL     1       0.758  -2.450  -2.506  1.00  0.00     0.062 C 
ATOM      2  C   UNL     1      -0.174  -2.710  -1.317  1.00  0.00     0.136 C 
ATOM      3  C   UNL     1       0.343  -3.864  -0.450  1.00  0.00     0.062 C 
ATOM      4  O   UNL     1      -1.481  -3.030  -1.797  1.00  0.00    -0.449 OA
ATOM      5  C   UNL     1      -2.377  -2.073  -1.361  1.00  0.00     0.374 C 
ATOM      6  O   UNL     1      -3.607  -2.088  -1.628  1.00  0.00    -0.242 OA
ATOM      7  C   UNL     1      -1.680  -1.079  -0.573  1.00  0.00     0.212 C 
ATOM      8  C   UNL     1      -0.402  -1.436  -0.513  1.00  0.00     0.052 C 
ENDROOT
BRANCH   8   9
ATOM      9  C   UNL     1       0.652  -0.602   0.101  1.00  0.00    -0.014 A 
ATOM     10  C   UNL     1       0.866   0.706  -0.361  1.00  0.00     0.010 A 
ATOM     11  C   UNL     1       1.438  -1.097   1.152  1.00  0.00     0.010 A 
ATOM     12  C   UNL     1       1.861   1.503   0.211  1.00  0.00     0.021 A 
ATOM     13  C   UNL     1       2.433  -0.299   1.724  1.00  0.00     0.021 A 
ATOM     14  C   UNL     1       2.647   1.005   1.259  1.00  0.00     0.067 A 
BRANCH  14  15
ATOM     15  S   UNL     1       3.911   2.003   1.969  1.00  0.00     0.175 S 
ATOM     16  C   UNL     1       5.433   1.743   1.086  1.00  0.00     0.163 C 
ATOM     17  O   UNL     1       4.099   1.635   3.414  1.00  0.00    -0.224 OA
ATOM     18  O   UNL     1       3.523   3.452   1.887  1.00  0.00    -0.224 OA
ENDBRANCH  14  15
ENDBRANCH   8   9
BRANCH   7  19
ATOM     19  O   UNL     1      -2.207   0.073   0.024  1.00  0.00    -0.486 OA
BRANCH  19  20
ATOM     20  C   UNL     1      -3.569   0.465  -0.092  1.00  0.00     0.233 C 
BRANCH  20  21
ATOM     21  C   UNL     1      -3.779   1.761   0.691  1.00  0.00     0.027 C 
ATOM     22  C   UNL     1      -3.427   3.034  -0.062  1.00  0.00     0.007 C 
ATOM     23  C   UNL     1      -4.885   2.668   0.174  1.00  0.00     0.007 C 
ENDBRANCH  20  21
ENDBRANCH  19  20
ENDBRANCH   7  19
TORSDOF 5
