REMARK SMILES CCCOc1cc(N)ccc1C(=O)OCCN(CC)CC
REMARK SMILES IDX 12 1 13 2 11 3 5 4 6 5 7 6 10 7 9 8 4 9 3 10 2 11 1 12 8 13
REMARK SMILES IDX 14 16 15 17 16 18 17 19 18 20 19 21 20 22 21 23
REMARK H PARENT 8 14 8 15
REMARK Flexibility Score: inf
ROOT
ATOM      1  C   UNL     1       0.568  -0.259   0.010  1.00  0.00     0.341 C 
ATOM      2  O   UNL     1       0.773   0.983  -0.076  1.00  0.00    -0.246 OA
ENDROOT
BRANCH   1   3
ATOM      3  C   UNL     1       1.705  -1.217   0.040  1.00  0.00     0.102 A 
ATOM      4  C   UNL     1       3.054  -0.785  -0.024  1.00  0.00     0.135 A 
ATOM      5  C   UNL     1       4.088  -1.743   0.008  1.00  0.00     0.072 A 
ATOM      6  C   UNL     1       3.798  -3.109   0.103  1.00  0.00     0.035 A 
ATOM      7  C   UNL     1       1.432  -2.594   0.134  1.00  0.00     0.022 A 
ATOM      8  C   UNL     1       2.467  -3.529   0.165  1.00  0.00     0.026 A 
BRANCH   4   9
ATOM      9  O   UNL     1       3.337   0.588  -0.118  1.00  0.00    -0.493 OA
BRANCH   9  10
ATOM     10  C   UNL     1       4.645   1.149  -0.189  1.00  0.00     0.229 C 
BRANCH  10  11
ATOM     11  C   UNL     1       4.536   2.669  -0.281  1.00  0.00     0.038 C 
ATOM     12  C   UNL     1       5.914   3.320  -0.360  1.00  0.00     0.007 C 
ENDBRANCH  10  11
ENDBRANCH   9  10
ENDBRANCH   4   9
BRANCH   6  13
ATOM     13  N   UNL     1       4.856  -4.070   0.134  1.00  0.00    -0.399 N 
ATOM     14  H   UNL     1       5.855  -3.768   0.088  1.00  0.00     0.156 HD
ATOM     15  H   UNL     1       4.649  -5.092   0.205  1.00  0.00     0.156 HD
ENDBRANCH   6  13
ENDBRANCH   1   3
BRANCH   1  16
ATOM     16  O   UNL     1      -0.744  -0.741   0.079  1.00  0.00    -0.461 OA
BRANCH  16  17
ATOM     17  C   UNL     1      -1.882   0.115   0.056  1.00  0.00     0.248 C 
BRANCH  17  18
ATOM     18  C   UNL     1      -3.155  -0.730   0.136  1.00  0.00     0.126 C 
BRANCH  18  19
ATOM     19  N   UNL     1      -4.362   0.112  -0.028  1.00  0.00    -0.301 NA
BRANCH  19  20
ATOM     20  C   UNL     1      -5.529  -0.720  -0.399  1.00  0.00     0.081 C 
ATOM     21  C   UNL     1      -6.641   0.133  -1.009  1.00  0.00     0.021 C 
ENDBRANCH  19  20
BRANCH  19  22
ATOM     22  C   UNL     1      -4.632   0.932   1.182  1.00  0.00     0.081 C 
ATOM     23  C   UNL     1      -4.547   2.411   0.826  1.00  0.00     0.021 C 
ENDBRANCH  19  22
ENDBRANCH  18  19
ENDBRANCH  17  18
ENDBRANCH  16  17
ENDBRANCH   1  16
TORSDOF 11
