REMARK SMILES C[C@@H](OC[C@@]1(c2ccccc2)CC[C@]2(CCC(=O)N2)CN1)c1cc(C(F)(F)F)cc(C(F)(F)F)c1
REMARK SMILES IDX 3 1 2 2 1 3 22 4 35 5 23 6 30 7 24 8 29 9 31 10 32 11 33 12
REMARK SMILES IDX 34 13 25 14 26 15 27 16 28 17 4 18 5 19 12 20 21 21 13 22
REMARK SMILES IDX 20 23 14 25 15 26 19 27 16 28 17 29 18 31 6 32 7 33 11 34
REMARK SMILES IDX 8 35 10 36 9 37
REMARK H PARENT 21 24 19 30
REMARK Flexibility Score: inf
ROOT
ATOM      1  O   UNL     1       0.674   0.946   0.063  1.00  0.00    -0.372 OA
ENDROOT
BRANCH   1   2
ATOM      2  C   UNL     1       1.603   1.020   1.130  1.00  0.00     0.145 C 
ATOM      3  C   UNL     1       1.557   2.429   1.717  1.00  0.00     0.044 C 
BRANCH   2   4
ATOM      4  C   UNL     1       3.009   0.710   0.654  1.00  0.00    -0.018 A 
ATOM      5  C   UNL     1       3.860  -0.075   1.446  1.00  0.00     0.019 A 
ATOM      6  C   UNL     1       3.487   1.240  -0.556  1.00  0.00     0.019 A 
ATOM      7  C   UNL     1       5.166  -0.370   1.022  1.00  0.00     0.056 A 
ATOM      8  C   UNL     1       4.803   0.987  -0.978  1.00  0.00     0.056 A 
ATOM      9  C   UNL     1       5.634   0.181  -0.184  1.00  0.00     0.026 A 
BRANCH   7  10
ATOM     10  C   UNL     1       6.081  -1.188   1.898  1.00  0.00     0.416 C 
ATOM     11  F   UNL     1       7.041  -1.836   1.139  1.00  0.00    -0.166 F 
ATOM     12  F   UNL     1       5.362  -2.145   2.592  1.00  0.00    -0.166 F 
ATOM     13  F   UNL     1       6.711  -0.354   2.803  1.00  0.00    -0.166 F 
ENDBRANCH   7  10
BRANCH   8  14
ATOM     14  C   UNL     1       5.328   1.529  -2.285  1.00  0.00     0.416 C 
ATOM     15  F   UNL     1       5.507   0.484  -3.173  1.00  0.00    -0.166 F 
ATOM     16  F   UNL     1       4.455   2.446  -2.846  1.00  0.00    -0.166 F 
ATOM     17  F   UNL     1       6.543   2.156  -2.075  1.00  0.00    -0.166 F 
ENDBRANCH   8  14
ENDBRANCH   2   4
ENDBRANCH   1   2
BRANCH   1  18
ATOM     18  C   UNL     1       0.411  -0.394  -0.325  1.00  0.00     0.188 C 
BRANCH  18  19
ATOM     19  C   UNL     1      -1.125  -0.653  -0.385  1.00  0.00     0.067 C 
ATOM     20  C   UNL     1      -1.690  -0.748   1.069  1.00  0.00     0.032 C 
ATOM     21  N   UNL     1      -1.789   0.440  -1.155  1.00  0.00    -0.303 NA
ATOM     22  C   UNL     1      -3.197  -0.480   1.078  1.00  0.00     0.032 C 
ATOM     23  C   UNL     1      -2.374   1.505  -0.329  1.00  0.00     0.110 C 
ATOM     24  H   UNL     1      -1.138   0.865  -1.857  1.00  0.00     0.123 HD
ATOM     25  C   UNL     1      -3.522   0.947   0.555  1.00  0.00     0.053 C 
ATOM     26  C   UNL     1      -4.880   0.973  -0.214  1.00  0.00     0.039 C 
ATOM     27  N   UNL     1      -3.722   1.854   1.676  1.00  0.00    -0.349 N 
ATOM     28  C   UNL     1      -5.626   2.232   0.250  1.00  0.00     0.102 C 
ATOM     29  C   UNL     1      -4.900   2.604   1.481  1.00  0.00     0.220 C 
ATOM     30  H   UNL     1      -3.024   2.036   2.433  1.00  0.00     0.164 HD
ATOM     31  O   UNL     1      -5.267   3.515   2.268  1.00  0.00    -0.275 OA
BRANCH  19  32
ATOM     32  C   UNL     1      -1.391  -1.995  -1.098  1.00  0.00    -0.026 A 
ATOM     33  C   UNL     1      -0.719  -3.173  -0.695  1.00  0.00     0.006 A 
ATOM     34  C   UNL     1      -2.363  -2.108  -2.121  1.00  0.00     0.006 A 
ATOM     35  C   UNL     1      -0.976  -4.396  -1.321  1.00  0.00     0.000 A 
ATOM     36  C   UNL     1      -2.613  -3.335  -2.741  1.00  0.00     0.000 A 
ATOM     37  C   UNL     1      -1.917  -4.476  -2.346  1.00  0.00     0.000 A 
ENDBRANCH  19  32
ENDBRANCH  18  19
ENDBRANCH   1  18
TORSDOF 7
