REMARK SMILES CC1CCN(CCCC(=O)c2ccc(F)cc2)CC1
REMARK SMILES IDX 7 1 6 2 5 3 1 4 2 5 3 6 19 7 4 8 18 9 8 10 9 11 10 12 11 13
REMARK SMILES IDX 12 14 17 15 13 16 16 17 14 18 15 19
REMARK H PARENT
REMARK Flexibility Score: inf
ROOT
ATOM      1  C   UNL     1       0.671  -0.565   0.794  1.00  0.00     0.024 C 
ENDROOT
BRANCH   1   2
ATOM      2  C   UNL     1      -0.486   0.378   1.158  1.00  0.00     0.085 C 
BRANCH   2   3
ATOM      3  N   UNL     1      -1.576   0.303   0.159  1.00  0.00    -0.303 NA
ATOM      4  C   UNL     1      -5.380   0.554   0.262  1.00  0.00     0.008 C 
ATOM      5  C   UNL     1      -4.340   0.340  -0.850  1.00  0.00    -0.012 C 
ATOM      6  C   UNL     1      -3.387   1.542  -0.988  1.00  0.00     0.019 C 
ATOM      7  C   UNL     1      -3.542  -0.963  -0.651  1.00  0.00     0.019 C 
ATOM      8  C   UNL     1      -2.332   1.571   0.126  1.00  0.00     0.085 C 
ATOM      9  C   UNL     1      -2.487  -0.824   0.453  1.00  0.00     0.085 C 
ENDBRANCH   2   3
ENDBRANCH   1   2
BRANCH   1  10
ATOM     10  C   UNL     1       1.261  -0.240  -0.585  1.00  0.00     0.082 C 
BRANCH  10  11
ATOM     11  C   UNL     1       2.457  -1.108  -0.872  1.00  0.00     0.162 C 
ATOM     12  O   UNL     1       2.266  -2.184  -1.503  1.00  0.00    -0.294 OA
BRANCH  11  13
ATOM     13  C   UNL     1       3.833  -0.763  -0.415  1.00  0.00     0.018 A 
ATOM     14  C   UNL     1       4.924  -1.555  -0.825  1.00  0.00     0.015 A 
ATOM     15  C   UNL     1       4.081   0.340   0.429  1.00  0.00     0.015 A 
ATOM     16  C   UNL     1       6.223  -1.250  -0.407  1.00  0.00     0.040 A 
ATOM     17  C   UNL     1       5.383   0.639   0.844  1.00  0.00     0.040 A 
ATOM     18  C   UNL     1       6.453  -0.154   0.426  1.00  0.00     0.123 A 
ATOM     19  F   UNL     1       7.713   0.140   0.830  1.00  0.00    -0.207 F 
ENDBRANCH  11  13
ENDBRANCH  10  11
ENDBRANCH   1  10
TORSDOF 5
