REMARK SMILES CNc1ccc(/C=C/c2ccc(OCCOCCOCC[18F])cc2)cc1
REMARK SMILES IDX 15 1 14 2 13 3 12 4 9 5 10 6 24 7 11 8 23 9 8 10 7 11 6 12
REMARK SMILES IDX 3 13 4 14 26 15 5 16 25 17 2 18 1 19 16 21 17 22 18 23 19 24
REMARK SMILES IDX 20 25 21 26 22 27
REMARK H PARENT 2 20
REMARK Flexibility Score: inf
ROOT
ATOM      1  C   UNL     1      -3.856   1.166  -1.517  1.00  0.00     0.201 C 
ENDROOT
BRANCH   1   2
ATOM      2  C   UNL     1      -3.684  -0.222  -2.141  1.00  0.00     0.258 C 
BRANCH   2   3
ATOM      3  O   UNL     1      -2.502  -0.273  -2.940  1.00  0.00    -0.491 OA
BRANCH   3   4
ATOM      4  C   UNL     1      -1.188  -0.343  -2.448  1.00  0.00     0.119 A 
ATOM      5  C   UNL     1       1.494  -0.453  -1.568  1.00  0.00    -0.025 A 
ATOM      6  C   UNL     1       1.192  -0.344  -2.934  1.00  0.00     0.012 A 
ATOM      7  C   UNL     1       0.435  -0.535  -0.643  1.00  0.00     0.012 A 
ATOM      8  C   UNL     1      -0.135  -0.285  -3.367  1.00  0.00     0.047 A 
ATOM      9  C   UNL     1      -0.893  -0.478  -1.078  1.00  0.00     0.047 A 
BRANCH   5  10
ATOM     10  C   UNL     1       2.919  -0.517  -1.158  1.00  0.00     0.009 C 
ATOM     11  C   UNL     1       3.353  -0.181   0.068  1.00  0.00     0.009 C 
BRANCH  11  12
ATOM     12  C   UNL     1       4.776  -0.241   0.485  1.00  0.00    -0.025 A 
ATOM     13  C   UNL     1       7.457  -0.324   1.382  1.00  0.00     0.034 A 
ATOM     14  C   UNL     1       7.166  -0.256   0.012  1.00  0.00     0.026 A 
ATOM     15  C   UNL     1       6.395  -0.339   2.303  1.00  0.00     0.026 A 
ATOM     16  C   UNL     1       5.842  -0.210  -0.435  1.00  0.00     0.010 A 
ATOM     17  C   UNL     1       5.071  -0.292   1.857  1.00  0.00     0.010 A 
BRANCH  13  18
ATOM     18  N   UNL     1       8.831  -0.368   1.809  1.00  0.00    -0.388 N 
ATOM     19  C   UNL     1       9.239  -0.426   3.209  1.00  0.00     0.139 C 
ATOM     20  H   UNL     1       9.586  -0.355   1.086  1.00  0.00     0.160 HD
ENDBRANCH  13  18
ENDBRANCH  11  12
ENDBRANCH   5  10
ENDBRANCH   3   4
ENDBRANCH   2   3
ENDBRANCH   1   2
BRANCH   1  21
ATOM     21  O   UNL     1      -5.048   1.217  -0.757  1.00  0.00    -0.376 OA
BRANCH  21  22
ATOM     22  C   UNL     1      -4.777   0.954   0.605  1.00  0.00     0.188 C 
BRANCH  22  23
ATOM     23  C   UNL     1      -6.089   0.861   1.372  1.00  0.00     0.188 C 
BRANCH  23  24
ATOM     24  O   UNL     1      -6.853  -0.212   0.861  1.00  0.00    -0.376 OA
BRANCH  24  25
ATOM     25  C   UNL     1      -8.135  -0.238   1.461  1.00  0.00     0.194 C 
BRANCH  25  26
ATOM     26  C   UNL     1      -9.151   0.482   0.579  1.00  0.00     0.243 C 
ATOM     27  F   UNL     1      -9.173  -0.087  -0.682  1.00  0.00    -0.249 F 
ENDBRANCH  25  26
ENDBRANCH  24  25
ENDBRANCH  23  24
ENDBRANCH  22  23
ENDBRANCH  21  22
ENDBRANCH   1  21
TORSDOF 12
