REMARK SMILES COC(=O)C1=C(C)NC(C)=C(C(=O)OCC(C)=O)C1c1ccccc1[N+](=O)[O-]
REMARK SMILES IDX 12 1 13 2 11 3 5 4 6 5 19 6 7 7 8 8 9 9 10 11 3 12 4 13 2 14
REMARK SMILES IDX 1 15 20 16 21 17 25 18 22 19 24 20 23 21 26 22 28 23 27 24
REMARK SMILES IDX 14 25 15 26 16 27 17 28 18 29
REMARK H PARENT 8 10
REMARK Flexibility Score: inf
ROOT
ATOM      1  C   UNL     1       2.315   0.496   0.112  1.00  0.00     0.337 C 
ATOM      2  O   UNL     1       2.745   0.152   1.246  1.00  0.00    -0.246 OA
ENDROOT
BRANCH   1   3
ATOM      3  C   UNL     1       0.962   1.093  -0.007  1.00  0.00     0.069 C 
ATOM      4  C   UNL     1      -1.472   1.230   0.819  1.00  0.00     0.069 C 
ATOM      5  C   UNL     1      -1.704   2.181  -0.114  1.00  0.00     0.023 C 
ATOM      6  C   UNL     1      -0.136   0.498   0.860  1.00  0.00     0.105 C 
ATOM      7  C   UNL     1      -3.042   2.860  -0.263  1.00  0.00     0.065 C 
ATOM      8  N   UNL     1      -0.649   2.583  -0.998  1.00  0.00    -0.362 N 
ATOM      9  C   UNL     1       0.692   2.092  -0.877  1.00  0.00     0.023 C 
ATOM     10  H   UNL     1      -0.853   3.294  -1.739  1.00  0.00     0.166 HD
ATOM     11  C   UNL     1       1.752   2.705  -1.756  1.00  0.00     0.065 C 
BRANCH   4  12
ATOM     12  C   UNL     1      -2.485   0.871   1.847  1.00  0.00     0.336 C 
ATOM     13  O   UNL     1      -2.558  -0.316   2.265  1.00  0.00    -0.246 OA
BRANCH  12  14
ATOM     14  O   UNL     1      -3.322   1.853   2.390  1.00  0.00    -0.466 OA
ATOM     15  C   UNL     1      -4.351   1.550   3.322  1.00  0.00     0.282 C 
ENDBRANCH  12  14
ENDBRANCH   4  12
BRANCH   6  16
ATOM     16  C   UNL     1      -0.295  -0.985   0.542  1.00  0.00     0.042 A 
ATOM     17  C   UNL     1       0.120  -1.931   1.502  1.00  0.00     0.012 A 
ATOM     18  C   UNL     1      -0.793  -1.453  -0.698  1.00  0.00     0.273 A 
ATOM     19  C   UNL     1       0.046  -3.300   1.237  1.00  0.00     0.001 A 
ATOM     20  C   UNL     1      -0.878  -2.830  -0.944  1.00  0.00     0.086 A 
ATOM     21  C   UNL     1      -0.455  -3.748   0.015  1.00  0.00     0.007 A 
BRANCH  18  22
ATOM     22  N   UNL     1      -1.218  -0.548  -1.718  1.00  0.00     0.063 N 
ATOM     23  O   UNL     1      -2.564  -0.341  -1.911  1.00  0.00    -0.258 OA
ATOM     24  O   UNL     1      -0.420  -0.228  -2.622  1.00  0.00    -0.258 OA
ENDBRANCH  18  22
ENDBRANCH   6  16
ENDBRANCH   1   3
BRANCH   1  25
ATOM     25  O   UNL     1       3.077   0.248  -1.032  1.00  0.00    -0.454 OA
BRANCH  25  26
ATOM     26  C   UNL     1       4.271  -0.524  -1.017  1.00  0.00     0.308 C 
BRANCH  26  27
ATOM     27  C   UNL     1       3.950  -1.969  -0.756  1.00  0.00     0.167 C 
ATOM     28  C   UNL     1       3.107  -2.750  -1.719  1.00  0.00     0.091 C 
ATOM     29  O   UNL     1       4.363  -2.510   0.259  1.00  0.00    -0.296 OA
ENDBRANCH  26  27
ENDBRANCH  25  26
ENDBRANCH   1  25
TORSDOF 8
