REMARK SMILES COc1cc2c(cc1OC)CC(=O)N(CCCN(C)C[C@H]1Cc3cc(OC)c(OC)cc31)CC2
REMARK SMILES IDX 16 1 17 2 18 3 19 4 20 5 21 6 25 7 28 8 24 9 31 10 23 11
REMARK SMILES IDX 32 12 22 13 26 14 27 15 29 16 30 17 15 18 14 19 33 20 34 21
REMARK SMILES IDX 5 22 4 23 6 24 3 25 7 26 8 27 11 28 2 30 1 31 9 32 10 33
REMARK SMILES IDX 12 34 13 35
REMARK H PARENT
REMARK Flexibility Score: 80.00
ROOT
ATOM      1  C   UNL     1      -0.316  -1.284   1.207  1.00  0.00     0.037 C 
ENDROOT
BRANCH   1   2
ATOM      2  C   UNL     1      -0.484  -0.980  -0.292  1.00  0.00     0.086 C 
BRANCH   2   3
ATOM      3  N   UNL     1      -1.029   0.374  -0.529  1.00  0.00    -0.306 NA
ATOM      4  C   UNL     1      -0.725   0.839  -1.893  1.00  0.00     0.105 C 
BRANCH   3   5
ATOM      5  C   UNL     1      -2.463   0.532  -0.183  1.00  0.00     0.092 C 
BRANCH   5   6
ATOM      6  C   UNL     1      -3.434  -0.319  -1.044  1.00  0.00     0.038 C 
ATOM      7  C   UNL     1      -7.431  -0.491  -0.001  1.00  0.00     0.161 A 
ATOM      8  C   UNL     1      -7.101   0.807  -0.525  1.00  0.00     0.161 A 
ATOM      9  C   UNL     1      -6.444  -1.517   0.104  1.00  0.00     0.054 A 
ATOM     10  C   UNL     1      -5.776   1.114  -0.957  1.00  0.00     0.054 A 
ATOM     11  C   UNL     1      -5.179  -1.179  -0.322  1.00  0.00    -0.040 A 
ATOM     12  C   UNL     1      -4.854   0.098  -0.835  1.00  0.00    -0.036 A 
ATOM     13  C   UNL     1      -3.774  -1.634  -0.505  1.00  0.00     0.045 C 
BRANCH   7  14
ATOM     14  O   UNL     1      -8.756  -0.712   0.406  1.00  0.00    -0.493 OA
ATOM     15  C   UNL     1      -9.235  -1.933   0.958  1.00  0.00     0.278 C 
ENDBRANCH   7  14
BRANCH   8  16
ATOM     16  O   UNL     1      -8.128   1.761  -0.596  1.00  0.00    -0.493 OA
ATOM     17  C   UNL     1      -7.962   3.088  -1.087  1.00  0.00     0.278 C 
ENDBRANCH   8  16
ENDBRANCH   5   6
ENDBRANCH   3   5
ENDBRANCH   2   3
ENDBRANCH   1   2
BRANCH   1  18
ATOM     18  C   UNL     1       0.512  -0.223   1.947  1.00  0.00     0.121 C 
BRANCH  18  19
ATOM     19  N   UNL     1       1.880  -0.146   1.414  1.00  0.00    -0.342 N 
BRANCH  19  20
ATOM     20  C   UNL     1       2.362   1.115   0.823  1.00  0.00     0.124 C 
BRANCH  20  21
ATOM     21  C   UNL     1       3.117   0.898  -0.495  1.00  0.00     0.057 C 
BRANCH  21  22
ATOM     22  C   UNL     1       4.538   0.450  -0.239  1.00  0.00    -0.039 A 
ATOM     23  C   UNL     1       5.601   1.329  -0.502  1.00  0.00     0.054 A 
ATOM     24  C   UNL     1       4.807  -0.818   0.316  1.00  0.00    -0.031 A 
ATOM     25  C   UNL     1       6.930   0.955  -0.232  1.00  0.00     0.161 A 
ATOM     26  C   UNL     1       6.134  -1.187   0.587  1.00  0.00     0.055 A 
ATOM     27  C   UNL     1       7.198  -0.307   0.313  1.00  0.00     0.161 A 
BRANCH  24  28
ATOM     28  C   UNL     1       3.688  -1.777   0.628  1.00  0.00     0.136 CG0
ATOM     29  G   UNL     1       2.793  -1.223   1.696  1.00  0.00     0.000 G0
ENDBRANCH  24  28
BRANCH  25  30
ATOM     30  O   UNL     1       8.012   1.812  -0.489  1.00  0.00    -0.493 OA
ATOM     31  C   UNL     1       7.894   3.122  -1.033  1.00  0.00     0.278 C 
ENDBRANCH  25  30
BRANCH  27  32
ATOM     32  O   UNL     1       8.535  -0.651   0.571  1.00  0.00    -0.493 OA
ATOM     33  C   UNL     1       8.959  -1.895   1.118  1.00  0.00     0.278 C 
ENDBRANCH  27  32
ENDBRANCH  21  22
ENDBRANCH  20  21
ENDBRANCH  19  20
BRANCH  19  34
ATOM     34  C   UNL     1       2.793  -1.223   1.696  1.00  0.00     0.227 CG0
ATOM     35  O   UNL     1       2.814  -1.743   2.845  1.00  0.00    -0.275 OA
ATOM     36  G   UNL     1       3.688  -1.777   0.628  1.00  0.00     0.000 G0
ENDBRANCH  19  34
ENDBRANCH  18  19
ENDBRANCH   1  18
TORSDOF 10
