REMARK SMILES O=C(OOC(=O)c1ccccc1)c1ccccc1
REMARK SMILES IDX 3 1 2 2 1 3 13 4 14 5 18 6 15 7 17 8 16 9 4 10 5 11 6 12
REMARK SMILES IDX 7 13 8 14 12 15 9 16 11 17 10 18
REMARK H PARENT
REMARK Flexibility Score: inf
ROOT
ATOM      1  O   UNL     1       0.671   0.069  -0.045  1.00  0.00    -0.242 OA
ENDROOT
BRANCH   1   2
ATOM      2  C   UNL     1       1.567  -0.849   0.500  1.00  0.00     0.386 C 
ATOM      3  O   UNL     1       1.129  -1.819   1.178  1.00  0.00    -0.242 OA
BRANCH   2   4
ATOM      4  C   UNL     1       3.021  -0.685   0.284  1.00  0.00     0.064 A 
ATOM      5  C   UNL     1       3.509   0.396  -0.472  1.00  0.00     0.016 A 
ATOM      6  C   UNL     1       3.938  -1.605   0.829  1.00  0.00     0.016 A 
ATOM      7  C   UNL     1       4.883   0.553  -0.678  1.00  0.00     0.001 A 
ATOM      8  C   UNL     1       5.311  -1.443   0.620  1.00  0.00     0.001 A 
ATOM      9  C   UNL     1       5.783  -0.365  -0.133  1.00  0.00     0.000 A 
ENDBRANCH   2   4
ENDBRANCH   1   2
BRANCH   1  10
ATOM     10  O   UNL     1      -0.671  -0.069   0.146  1.00  0.00    -0.242 OA
BRANCH  10  11
ATOM     11  C   UNL     1      -1.567   0.849  -0.400  1.00  0.00     0.386 C 
ATOM     12  O   UNL     1      -1.129   1.819  -1.077  1.00  0.00    -0.242 OA
BRANCH  11  13
ATOM     13  C   UNL     1      -3.021   0.685  -0.183  1.00  0.00     0.064 A 
ATOM     14  C   UNL     1      -3.509  -0.396   0.573  1.00  0.00     0.016 A 
ATOM     15  C   UNL     1      -3.938   1.605  -0.728  1.00  0.00     0.016 A 
ATOM     16  C   UNL     1      -4.883  -0.553   0.779  1.00  0.00     0.001 A 
ATOM     17  C   UNL     1      -5.311   1.443  -0.519  1.00  0.00     0.001 A 
ATOM     18  C   UNL     1      -5.783   0.365   0.234  1.00  0.00     0.000 A 
ENDBRANCH  11  13
ENDBRANCH  10  11
ENDBRANCH   1  10
TORSDOF 5
