REMARK SMILES Cc1ccccc1-c1cc(N2CCN(C)CC2)ncc1N(C)C(=O)C(C)(C)c1cc(C(F)(F)F)cc(C(F)(F)F)c1
REMARK SMILES IDX 23 1 24 2 21 3 22 4 20 5 19 6 8 7 18 8 9 9 10 10 7 11 6 12
REMARK SMILES IDX 2 13 5 14 3 15 1 16 4 17 11 18 12 19 17 20 13 21 16 22 14 23
REMARK SMILES IDX 15 24 25 25 26 26 27 27 28 28 41 29 29 30 36 31 30 32 35 33
REMARK SMILES IDX 37 34 38 35 39 36 40 37 31 38 32 39 33 40 34 41
REMARK H PARENT
REMARK Flexibility Score: inf
ROOT
ATOM      1  C   UNL     1      -1.744   1.285   0.257  1.00  0.00     0.236 C 
ATOM      2  O   UNL     1      -1.416   1.112   1.459  1.00  0.00    -0.274 OA
ENDROOT
BRANCH   1   3
ATOM      3  N   UNL     1      -0.870   0.746  -0.764  1.00  0.00    -0.313 N 
ATOM      4  C   UNL     1      -1.358   0.109  -1.989  1.00  0.00     0.153 C 
BRANCH   3   5
ATOM      5  C   UNL     1       0.544   0.756  -0.502  1.00  0.00     0.070 A 
ATOM      6  C   UNL     1       1.239   1.970  -0.539  1.00  0.00     0.140 A 
ATOM      7  C   UNL     1       1.243  -0.421  -0.153  1.00  0.00     0.011 A 
ATOM      8  N   UNL     1       2.564   2.014  -0.244  1.00  0.00    -0.237 NA
ATOM      9  C   UNL     1       2.604  -0.336   0.168  1.00  0.00     0.057 A 
ATOM     10  C   UNL     1       3.255   0.901   0.122  1.00  0.00     0.129 A 
BRANCH   7  11
ATOM     11  C   UNL     1       0.579  -1.745  -0.116  1.00  0.00    -0.013 A 
ATOM     12  C   UNL     1      -0.356  -2.017   0.895  1.00  0.00     0.009 A 
ATOM     13  C   UNL     1       0.888  -2.751  -1.068  1.00  0.00    -0.043 A 
ATOM     14  C   UNL     1      -0.989  -3.258   0.961  1.00  0.00     0.001 A 
ATOM     15  C   UNL     1       0.250  -4.001  -0.981  1.00  0.00     0.004 A 
ATOM     16  C   UNL     1       1.876  -2.500  -2.178  1.00  0.00     0.045 C 
ATOM     17  C   UNL     1      -0.688  -4.247   0.024  1.00  0.00     0.000 A 
ENDBRANCH   7  11
BRANCH  10  18
ATOM     18  N   UNL     1       4.655   0.989   0.412  1.00  0.00    -0.354 N 
ATOM     19  C   UNL     1       5.565   1.646  -0.531  1.00  0.00     0.133 C 
ATOM     20  C   UNL     1       5.181   0.594   1.719  1.00  0.00     0.133 C 
ATOM     21  C   UNL     1       6.848   0.814  -0.653  1.00  0.00     0.105 C 
ATOM     22  C   UNL     1       6.478  -0.198   1.522  1.00  0.00     0.105 C 
ATOM     23  N   UNL     1       7.426   0.574   0.684  1.00  0.00    -0.303 NA
ATOM     24  C   UNL     1       8.689  -0.172   0.556  1.00  0.00     0.105 C 
ENDBRANCH  10  18
ENDBRANCH   3   5
ENDBRANCH   1   3
BRANCH   1  25
ATOM     25  C   UNL     1      -3.071   2.009  -0.012  1.00  0.00     0.069 C 
ATOM     26  C   UNL     1      -3.203   2.495  -1.472  1.00  0.00     0.027 C 
ATOM     27  C   UNL     1      -3.068   3.264   0.901  1.00  0.00     0.027 C 
BRANCH  25  28
ATOM     28  C   UNL     1      -4.281   1.114   0.331  1.00  0.00    -0.032 A 
ATOM     29  C   UNL     1      -5.570   1.674   0.433  1.00  0.00     0.018 A 
ATOM     30  C   UNL     1      -4.152  -0.281   0.506  1.00  0.00     0.018 A 
ATOM     31  C   UNL     1      -6.679   0.893   0.792  1.00  0.00     0.056 A 
ATOM     32  C   UNL     1      -5.260  -1.088   0.802  1.00  0.00     0.056 A 
ATOM     33  C   UNL     1      -6.520  -0.490   0.962  1.00  0.00     0.026 A 
BRANCH  31  34
ATOM     34  C   UNL     1      -8.034   1.543   0.921  1.00  0.00     0.416 C 
ATOM     35  F   UNL     1      -8.555   1.778  -0.340  1.00  0.00    -0.166 F 
ATOM     36  F   UNL     1      -7.919   2.747   1.599  1.00  0.00    -0.166 F 
ATOM     37  F   UNL     1      -8.913   0.740   1.627  1.00  0.00    -0.166 F 
ENDBRANCH  31  34
BRANCH  32  38
ATOM     38  C   UNL     1      -5.062  -2.568   1.016  1.00  0.00     0.416 C 
ATOM     39  F   UNL     1      -4.525  -2.784   2.272  1.00  0.00    -0.166 F 
ATOM     40  F   UNL     1      -4.195  -3.074   0.063  1.00  0.00    -0.166 F 
ATOM     41  F   UNL     1      -6.262  -3.252   0.918  1.00  0.00    -0.166 F 
ENDBRANCH  32  38
ENDBRANCH  25  28
ENDBRANCH   1  25
TORSDOF 8
