REMARK SMILES OCc1cc([C@@H](O)CNCCCCCCOCCOCc2c(Cl)cccc2Cl)ccc1O
REMARK SMILES IDX 12 1 11 2 10 3 9 4 8 6 6 7 5 8 3 9 31 10 4 11 30 12 29 13
REMARK SMILES IDX 2 14 1 15 32 17 7 19 13 21 14 22 15 23 16 24 17 25 18 26
REMARK SMILES IDX 19 27 20 28 21 29 22 30 27 31 23 32 24 33 26 34 28 35 25 36
REMARK H PARENT 9 5 1 16 32 18 7 20
REMARK Flexibility Score: inf
ROOT
ATOM      1  C   UNL     1      -0.385  -1.197   0.395  1.00  0.00     0.001 C 
ENDROOT
BRANCH   1   2
ATOM      2  C   UNL     1       0.227  -1.179  -1.018  1.00  0.00     0.015 C 
BRANCH   2   3
ATOM      3  C   UNL     1       1.759  -1.074  -1.028  1.00  0.00     0.081 C 
BRANCH   3   4
ATOM      4  N   UNL     1       2.178   0.322  -0.844  1.00  0.00    -0.314 NA
ATOM      5  H   UNL     1       2.022   0.853  -1.734  1.00  0.00     0.122 HD
BRANCH   4   6
ATOM      6  C   UNL     1       3.582   0.450  -0.421  1.00  0.00     0.117 C 
BRANCH   6   7
ATOM      7  C   UNL     1       4.584   0.233  -1.575  1.00  0.00     0.158 C 
BRANCH   7   8
ATOM      8  C   UNL     1       5.960   0.705  -1.155  1.00  0.00    -0.018 A 
ATOM      9  C   UNL     1       8.008   0.384   0.138  1.00  0.00     0.020 A 
ATOM     10  C   UNL     1       8.490   1.622  -0.328  1.00  0.00     0.121 A 
ATOM     11  C   UNL     1       6.748  -0.070  -0.286  1.00  0.00     0.016 A 
ATOM     12  C   UNL     1       7.699   2.401  -1.182  1.00  0.00     0.047 A 
ATOM     13  C   UNL     1       6.441   1.950  -1.587  1.00  0.00     0.010 A 
BRANCH   9  14
ATOM     14  C   UNL     1       8.851  -0.485   1.035  1.00  0.00     0.195 C 
BRANCH  14  15
ATOM     15  O   UNL     1       9.671  -1.320   0.263  1.00  0.00    -0.392 OA
ATOM     16  H   UNL     1      10.424  -0.758  -0.058  1.00  0.00     0.211 HD
ENDBRANCH  14  15
ENDBRANCH   9  14
BRANCH  10  17
ATOM     17  O   UNL     1       9.752   2.076   0.059  1.00  0.00    -0.508 OA
ATOM     18  H   UNL     1      10.114   2.968  -0.255  1.00  0.00     0.293 HD
ENDBRANCH  10  17
ENDBRANCH   7   8
BRANCH   7  19
ATOM     19  O   UNL     1       4.631  -1.127  -1.922  1.00  0.00    -0.387 OA
ATOM     20  H   UNL     1       5.087  -1.182  -2.803  1.00  0.00     0.211 HD
ENDBRANCH   7  19
ENDBRANCH   6   7
ENDBRANCH   4   6
ENDBRANCH   3   4
ENDBRANCH   2   3
ENDBRANCH   1   2
BRANCH   1  21
ATOM     21  C   UNL     1      -0.272   0.155   1.117  1.00  0.00     0.002 C 
BRANCH  21  22
ATOM     22  C   UNL     1      -0.953   0.159   2.497  1.00  0.00     0.028 C 
BRANCH  22  23
ATOM     23  C   UNL     1      -2.486   0.169   2.422  1.00  0.00     0.160 C 
BRANCH  23  24
ATOM     24  O   UNL     1      -2.967  -1.145   2.224  1.00  0.00    -0.379 OA
BRANCH  24  25
ATOM     25  C   UNL     1      -4.344  -1.125   1.897  1.00  0.00     0.188 C 
BRANCH  25  26
ATOM     26  C   UNL     1      -4.524  -1.220   0.380  1.00  0.00     0.189 C 
BRANCH  26  27
ATOM     27  O   UNL     1      -5.901  -1.247   0.054  1.00  0.00    -0.374 OA
BRANCH  27  28
ATOM     28  C   UNL     1      -6.354   0.043  -0.301  1.00  0.00     0.199 C 
BRANCH  28  29
ATOM     29  C   UNL     1      -7.858   0.012  -0.435  1.00  0.00     0.015 A 
ATOM     30  C   UNL     1      -8.686   0.272   0.684  1.00  0.00     0.048 A 
ATOM     31  C   UNL     1      -8.463  -0.350  -1.662  1.00  0.00     0.048 A 
ATOM     32  Cl  UNL     1      -8.022   0.644   2.273  1.00  0.00    -0.084 Cl
ATOM     33  C   UNL     1     -10.079   0.221   0.554  1.00  0.00     0.021 A 
ATOM     34  C   UNL     1      -9.858  -0.395  -1.771  1.00  0.00     0.021 A 
ATOM     35  Cl  UNL     1      -7.515  -0.776  -3.084  1.00  0.00    -0.084 Cl
ATOM     36  C   UNL     1     -10.662  -0.105  -0.670  1.00  0.00     0.003 A 
ENDBRANCH  28  29
ENDBRANCH  27  28
ENDBRANCH  26  27
ENDBRANCH  25  26
ENDBRANCH  24  25
ENDBRANCH  23  24
ENDBRANCH  22  23
ENDBRANCH  21  22
ENDBRANCH   1  21
TORSDOF 19
