REMARK SMILES Cn1cc(C(=O)[C@@H]2CCc3[nH]cnc3C2)c2ccccc21
REMARK SMILES IDX 5 1 6 2 4 3 1 4 2 5 3 6 21 7 16 8 20 9 17 10 19 11 18 12
REMARK SMILES IDX 7 13 8 14 15 15 9 16 14 17 10 18 13 19 11 20 12 21
REMARK H PARENT 11 22
REMARK Flexibility Score: inf
ROOT
ATOM      1  C   UNL     1      -0.016   1.050   0.262  1.00  0.00     0.168 C 
ATOM      2  O   UNL     1       0.033   2.168   0.843  1.00  0.00    -0.294 OA
ENDROOT
BRANCH   1   3
ATOM      3  C   UNL     1       1.229   0.268   0.082  1.00  0.00     0.043 A 
ATOM      4  C   UNL     1       3.108  -2.792  -0.681  1.00  0.00     0.149 C 
ATOM      5  N   UNL     1       2.617  -1.461  -0.341  1.00  0.00    -0.350 N 
ATOM      6  C   UNL     1       1.322  -1.072  -0.297  1.00  0.00     0.098 A 
ATOM      7  C   UNL     1       3.351  -0.387   0.009  1.00  0.00     0.048 A 
ATOM      8  C   UNL     1       2.539   0.690   0.275  1.00  0.00     0.010 A 
ATOM      9  C   UNL     1       4.742  -0.300   0.110  1.00  0.00     0.027 A 
ATOM     10  C   UNL     1       3.071   1.927   0.650  1.00  0.00     0.011 A 
ATOM     11  C   UNL     1       5.300   0.933   0.491  1.00  0.00     0.002 A 
ATOM     12  C   UNL     1       4.469   2.040   0.758  1.00  0.00     0.001 A 
ENDBRANCH   1   3
BRANCH   1  13
ATOM     13  C   UNL     1      -1.357   0.500  -0.170  1.00  0.00     0.067 C 
ATOM     14  C   UNL     1      -2.300   1.628  -0.671  1.00  0.00     0.018 C 
ATOM     15  C   UNL     1      -2.002  -0.293   0.992  1.00  0.00     0.070 C 
ATOM     16  C   UNL     1      -3.628   1.060  -1.211  1.00  0.00     0.056 C 
ATOM     17  C   UNL     1      -3.422  -0.637   0.662  1.00  0.00     0.062 A 
ATOM     18  C   UNL     1      -4.169   0.025  -0.274  1.00  0.00     0.038 A 
ATOM     19  N   UNL     1      -4.182  -1.551   1.294  1.00  0.00    -0.242 NA
ATOM     20  N   UNL     1      -5.405  -0.492  -0.282  1.00  0.00    -0.348 N 
ATOM     21  C   UNL     1      -5.385  -1.438   0.682  1.00  0.00     0.197 A 
ATOM     22  H   UNL     1      -6.204  -0.229  -0.899  1.00  0.00     0.167 HD
ENDBRANCH   1  13
TORSDOF 2
