REMARK SMILES CCN(CC)CCNC(=O)c1cc(Br)c(N)cc1OC
REMARK SMILES IDX 7 1 6 2 3 3 2 4 1 5 4 6 5 7 8 8 9 9 10 11 11 12 12 13 18 14
REMARK SMILES IDX 13 15 17 16 14 17 15 18 19 19 20 20 16 21
REMARK H PARENT 8 10 16 22 16 23
REMARK Flexibility Score: inf
ROOT
ATOM      1  C   UNL     1      -1.216   0.947   0.761  1.00  0.00     0.131 C 
ENDROOT
BRANCH   1   2
ATOM      2  C   UNL     1      -1.704  -0.268  -0.038  1.00  0.00     0.105 C 
BRANCH   2   3
ATOM      3  N   UNL     1      -3.177  -0.243  -0.193  1.00  0.00    -0.302 NA
BRANCH   3   4
ATOM      4  C   UNL     1      -3.595  -1.109  -1.319  1.00  0.00     0.081 C 
ATOM      5  C   UNL     1      -5.012  -0.768  -1.780  1.00  0.00     0.021 C 
ENDBRANCH   3   4
BRANCH   3   6
ATOM      6  C   UNL     1      -3.871  -0.606   1.070  1.00  0.00     0.081 C 
ATOM      7  C   UNL     1      -4.735   0.561   1.531  1.00  0.00     0.021 C 
ENDBRANCH   3   6
ENDBRANCH   2   3
ENDBRANCH   1   2
BRANCH   1   8
ATOM      8  N   UNL     1       0.244   0.953   0.838  1.00  0.00    -0.351 N 
ATOM      9  C   UNL     1       1.073   1.307  -0.280  1.00  0.00     0.255 C 
ATOM     10  H   UNL     1       0.690   0.762   1.763  1.00  0.00     0.163 HD
ATOM     11  O   UNL     1       0.560   1.856  -1.293  1.00  0.00    -0.269 OA
BRANCH   9  12
ATOM     12  C   UNL     1       2.534   1.070  -0.244  1.00  0.00     0.083 A 
ATOM     13  C   UNL     1       3.394   2.015  -0.825  1.00  0.00     0.035 A 
ATOM     14  C   UNL     1       3.075  -0.095   0.339  1.00  0.00     0.133 A 
ATOM     15  C   UNL     1       4.780   1.835  -0.803  1.00  0.00     0.042 A 
ATOM     16  C   UNL     1       4.472  -0.267   0.367  1.00  0.00     0.074 A 
ATOM     17  Br  UNL     1       5.876   3.188  -1.607  1.00  0.00    -0.049 Br
ATOM     18  C   UNL     1       5.328   0.689  -0.197  1.00  0.00     0.050 A 
BRANCH  14  19
ATOM     19  O   UNL     1       2.204  -1.070   0.856  1.00  0.00    -0.496 OA
ATOM     20  C   UNL     1       2.618  -2.288   1.466  1.00  0.00     0.278 C 
ENDBRANCH  14  19
BRANCH  18  21
ATOM     21  N   UNL     1       6.745   0.475  -0.152  1.00  0.00    -0.398 N 
ATOM     22  H   UNL     1       7.137  -0.382   0.299  1.00  0.00     0.156 HD
ATOM     23  H   UNL     1       7.422   1.156  -0.558  1.00  0.00     0.156 HD
ENDBRANCH  18  21
ENDBRANCH   9  12
ENDBRANCH   1   8
TORSDOF 8
