REMARK SMILES O=C(c1cc(Cc2n[nH]c(=O)c3ccccc23)ccc1F)N1CCN(C(=O)C2CC2)CC1
REMARK SMILES IDX 21 1 20 2 19 3 18 4 5 5 4 6 3 7 2 8 1 9 22 10 23 11 32 12
REMARK SMILES IDX 24 13 31 14 25 15 26 16 27 17 28 18 29 19 30 20 6 21 7 22
REMARK SMILES IDX 8 23 17 24 9 25 12 26 16 27 10 28 13 30 15 31 11 32 14 33
REMARK H PARENT 9 29
REMARK Flexibility Score: inf
ROOT
ATOM      1  F   UNL     1      -1.417  -3.264   3.697  1.00  0.00    -0.206 F 
ATOM      2  C   UNL     1      -1.318  -2.027   3.146  1.00  0.00     0.135 A 
ATOM      3  C   UNL     1      -1.898  -0.941   3.808  1.00  0.00     0.040 A 
ATOM      4  C   UNL     1      -1.795   0.346   3.276  1.00  0.00     0.007 A 
ATOM      5  C   UNL     1      -1.124   0.559   2.063  1.00  0.00    -0.041 A 
ATOM      6  C   UNL     1      -0.541  -0.534   1.401  1.00  0.00     0.021 A 
ATOM      7  C   UNL     1      -0.617  -1.828   1.943  1.00  0.00     0.076 A 
ENDROOT
BRANCH   7   8
ATOM      8  C   UNL     1       0.010  -2.963   1.228  1.00  0.00     0.256 C 
ATOM      9  O   UNL     1      -0.551  -4.093   1.243  1.00  0.00    -0.269 OA
ATOM     10  N   UNL     1       1.231  -2.788   0.488  1.00  0.00    -0.335 N 
ATOM     11  C   UNL     1       2.366  -2.085   1.110  1.00  0.00     0.141 C 
ATOM     12  C   UNL     1       1.407  -3.475  -0.797  1.00  0.00     0.141 C 
ATOM     13  C   UNL     1       3.600  -2.102   0.205  1.00  0.00     0.141 C 
ATOM     14  C   UNL     1       2.094  -2.539  -1.796  1.00  0.00     0.141 C 
ATOM     15  N   UNL     1       3.206  -1.799  -1.179  1.00  0.00    -0.339 N 
ATOM     16  C   UNL     1       3.898  -0.806  -1.962  1.00  0.00     0.225 C 
ATOM     17  O   UNL     1       3.909  -0.898  -3.221  1.00  0.00    -0.275 OA
BRANCH  16  18
ATOM     18  C   UNL     1       4.623   0.338  -1.314  1.00  0.00     0.079 C 
ATOM     19  C   UNL     1       4.242   1.711  -1.852  1.00  0.00     0.014 C 
ATOM     20  C   UNL     1       3.744   1.267  -0.488  1.00  0.00     0.014 C 
ENDBRANCH  16  18
ENDBRANCH   7   8
BRANCH   5  21
ATOM     21  C   UNL     1      -0.994   1.945   1.485  1.00  0.00     0.094 C 
BRANCH  21  22
ATOM     22  C   UNL     1      -1.645   2.034   0.126  1.00  0.00     0.073 A 
ATOM     23  N   UNL     1      -0.838   1.961  -0.966  1.00  0.00    -0.177 NA
ATOM     24  C   UNL     1      -3.042   2.152  -0.062  1.00  0.00     0.011 A 
ATOM     25  N   UNL     1      -1.312   2.008  -2.210  1.00  0.00    -0.243 N 
ATOM     26  C   UNL     1      -3.545   2.204  -1.386  1.00  0.00     0.050 A 
ATOM     27  C   UNL     1      -3.949   2.221   1.015  1.00  0.00     0.011 A 
ATOM     28  C   UNL     1      -2.642   2.129  -2.460  1.00  0.00     0.272 A 
ATOM     29  H   UNL     1      -0.637   1.952  -3.008  1.00  0.00     0.194 HD
ATOM     30  C   UNL     1      -4.931   2.327  -1.603  1.00  0.00     0.014 A 
ATOM     31  C   UNL     1      -5.318   2.347   0.779  1.00  0.00     0.001 A 
ATOM     32  O   UNL     1      -3.049   2.176  -3.654  1.00  0.00    -0.267 OA
ATOM     33  C   UNL     1      -5.808   2.401  -0.525  1.00  0.00     0.001 A 
ENDBRANCH  21  22
ENDBRANCH   5  21
TORSDOF 4
