REMARK SMILES CN1CCC2=C(C1)c1ccccc1Cc1ccccc12
REMARK SMILES IDX 1 1 2 2 3 3 4 4 5 5 6 6 7 7 8 8 9 9 10 10 11 11 12 12 13 13
REMARK SMILES IDX 14 14 15 15 16 16 17 17 18 18 19 19 20 20
REMARK H PARENT
REMARK Flexibility Score: inf
ROOT
ATOM      1  C   UNL     1       4.462  -0.798  -0.117  1.00  0.00     0.105 C 
ATOM      2  N   UNL     1       3.029  -1.015   0.131  1.00  0.00    -0.302 NA
ATOM      3  C   UNL     1       2.435  -1.775  -0.977  1.00  0.00     0.089 C 
ATOM      4  C   UNL     1       1.009  -2.158  -0.600  1.00  0.00     0.052 C 
ATOM      5  C   UNL     1       0.203  -0.973  -0.108  1.00  0.00    -0.034 C 
ATOM      6  C   UNL     1       0.832   0.121   0.412  1.00  0.00    -0.023 C 
ATOM      7  C   UNL     1       2.337   0.281   0.265  1.00  0.00     0.120 C 
ATOM      8  C   UNL     1       0.084   1.287   0.974  1.00  0.00    -0.017 A 
ATOM      9  C   UNL     1       0.472   1.823   2.216  1.00  0.00     0.009 A 
ATOM     10  C   UNL     1      -0.176   2.943   2.743  1.00  0.00     0.001 A 
ATOM     11  C   UNL     1      -1.223   3.540   2.042  1.00  0.00     0.000 A 
ATOM     12  C   UNL     1      -1.634   3.013   0.817  1.00  0.00     0.004 A 
ATOM     13  C   UNL     1      -0.985   1.892   0.271  1.00  0.00    -0.036 A 
ATOM     14  C   UNL     1      -1.505   1.275  -0.995  1.00  0.00     0.072 C 
ATOM     15  C   UNL     1      -2.105  -0.056  -0.640  1.00  0.00    -0.036 A 
ATOM     16  C   UNL     1      -3.497  -0.233  -0.710  1.00  0.00     0.004 A 
ATOM     17  C   UNL     1      -4.076  -1.441  -0.322  1.00  0.00     0.000 A 
ATOM     18  C   UNL     1      -3.275  -2.481   0.148  1.00  0.00     0.001 A 
ATOM     19  C   UNL     1      -1.891  -2.316   0.232  1.00  0.00     0.009 A 
ATOM     20  C   UNL     1      -1.286  -1.104  -0.153  1.00  0.00    -0.019 A 
ENDROOT
TORSDOF 0
