REMARK SMILES CCOC(=O)C1=C(C)NC(C)=C(C(=O)OCC)C1c1ccccc1/C=C/C(=O)OC(C)(C)C
REMARK SMILES IDX 19 1 20 2 21 3 22 4 23 5 24 6 18 7 6 8 7 9 8 10 9 11 12 12
REMARK SMILES IDX 10 13 11 15 4 16 5 17 3 18 2 19 1 20 13 21 14 22 15 23 16 24
REMARK SMILES IDX 17 25 25 26 26 27 27 28 28 29 29 30 30 31 31 32 32 33 33 34
REMARK H PARENT 9 14
REMARK Flexibility Score: inf
ROOT
ATOM      1  C   UNL     1      -1.411  -0.019  -1.321  1.00  0.00    -0.028 A 
ATOM      2  C   UNL     1      -2.673  -0.372  -1.844  1.00  0.00     0.005 A 
ATOM      3  C   UNL     1      -2.885  -0.447  -3.221  1.00  0.00     0.000 A 
ATOM      4  C   UNL     1      -1.850  -0.153  -4.105  1.00  0.00     0.001 A 
ATOM      5  C   UNL     1      -0.599   0.220  -3.615  1.00  0.00     0.008 A 
ATOM      6  C   UNL     1      -0.361   0.283  -2.233  1.00  0.00    -0.021 A 
ENDROOT
BRANCH   1   7
ATOM      7  C   UNL     1      -1.252   0.130   0.191  1.00  0.00     0.098 C 
ATOM      8  C   UNL     1      -1.750  -1.123   0.901  1.00  0.00     0.068 C 
ATOM      9  C   UNL     1      -2.942  -1.117   1.539  1.00  0.00     0.023 C 
ATOM     10  C   UNL     1      -3.513  -2.349   2.193  1.00  0.00     0.065 C 
ATOM     11  N   UNL     1      -3.701   0.097   1.604  1.00  0.00    -0.362 N 
ATOM     12  C   UNL     1      -1.932   1.416   0.639  1.00  0.00     0.068 C 
ATOM     13  C   UNL     1      -3.125   1.369   1.276  1.00  0.00     0.023 C 
ATOM     14  H   UNL     1      -4.666   0.068   2.004  1.00  0.00     0.166 HD
ATOM     15  C   UNL     1      -3.867   2.611   1.699  1.00  0.00     0.065 C 
BRANCH   8  16
ATOM     16  C   UNL     1      -0.934  -2.353   0.770  1.00  0.00     0.336 C 
ATOM     17  O   UNL     1       0.319  -2.286   0.893  1.00  0.00    -0.246 OA
BRANCH  16  18
ATOM     18  O   UNL     1      -1.546  -3.574   0.470  1.00  0.00    -0.463 OA
BRANCH  18  19
ATOM     19  C   UNL     1      -0.811  -4.778   0.288  1.00  0.00     0.230 C 
ATOM     20  C   UNL     1      -1.769  -5.914  -0.032  1.00  0.00     0.049 C 
ENDBRANCH  18  19
ENDBRANCH  16  18
ENDBRANCH   8  16
BRANCH  12  21
ATOM     21  C   UNL     1      -1.270   2.698   0.291  1.00  0.00     0.336 C 
ATOM     22  O   UNL     1      -0.013   2.780   0.340  1.00  0.00    -0.246 OA
BRANCH  21  23
ATOM     23  O   UNL     1      -2.028   3.798  -0.129  1.00  0.00    -0.463 OA
BRANCH  23  24
ATOM     24  C   UNL     1      -1.466   5.077  -0.412  1.00  0.00     0.230 C 
ATOM     25  C   UNL     1      -1.097   5.799   0.878  1.00  0.00     0.049 C 
ENDBRANCH  23  24
ENDBRANCH  21  23
ENDBRANCH  12  21
ENDBRANCH   1   7
BRANCH   6  26
ATOM     26  C   UNL     1       0.974   0.725  -1.795  1.00  0.00     0.016 C 
ATOM     27  C   UNL     1       1.838  -0.124  -1.230  1.00  0.00     0.094 C 
BRANCH  27  28
ATOM     28  C   UNL     1       3.172   0.297  -0.776  1.00  0.00     0.331 C 
ATOM     29  O   UNL     1       3.554   1.488  -0.937  1.00  0.00    -0.247 OA
BRANCH  28  30
ATOM     30  O   UNL     1       3.997  -0.652  -0.155  1.00  0.00    -0.457 OA
BRANCH  30  31
ATOM     31  C   UNL     1       5.296  -0.410   0.408  1.00  0.00     0.104 C 
ATOM     32  C   UNL     1       6.280   0.057  -0.681  1.00  0.00     0.056 C 
ATOM     33  C   UNL     1       5.795  -1.740   0.990  1.00  0.00     0.056 C 
ATOM     34  C   UNL     1       5.212   0.631   1.542  1.00  0.00     0.056 C 
ENDBRANCH  30  31
ENDBRANCH  28  30
ENDBRANCH  27  28
ENDBRANCH   6  26
TORSDOF 11
