REMARK SMILES CC(=O)[C@@]1(C)CC[C@H]2[C@@H]3C=C(C)C4=CC(=O)CC[C@]4(C)[C@H]3CC[C@@]21C
REMARK SMILES IDX 8 1 7 2 6 3 4 4 5 5 24 6 25 7 23 8 22 9 21 10 9 11 10 12
REMARK SMILES IDX 11 13 12 14 13 15 14 16 15 17 16 18 17 19 18 20 19 21 20 22
REMARK SMILES IDX 2 23 1 24 3 25
REMARK H PARENT
REMARK Flexibility Score: inf
ROOT
ATOM      1  C   UNL     1       1.014  -0.544  -0.468  1.00  0.00     0.003 C 
ATOM      2  C   UNL     1       1.975  -1.676  -0.799  1.00  0.00     0.006 C 
ATOM      3  C   UNL     1       3.378  -1.040  -0.737  1.00  0.00     0.015 C 
ATOM      4  C   UNL     1       3.210   0.434  -0.232  1.00  0.00     0.032 C 
ATOM      5  C   UNL     1       3.249   1.387  -1.459  1.00  0.00     0.020 C 
ATOM      6  C   UNL     1       1.806   0.380   0.483  1.00  0.00    -0.017 C 
ATOM      7  C   UNL     1       1.984  -0.238   1.917  1.00  0.00     0.013 C 
ATOM      8  C   UNL     1       1.023   1.716   0.612  1.00  0.00     0.008 C 
ATOM      9  C   UNL     1      -0.437   1.491   1.089  1.00  0.00     0.006 C 
ATOM     10  C   UNL     1      -1.191   0.459   0.201  1.00  0.00     0.007 C 
ATOM     11  C   UNL     1      -0.391  -0.883   0.071  1.00  0.00     0.020 C 
ATOM     12  C   UNL     1      -1.119  -1.899  -0.792  1.00  0.00    -0.019 C 
ATOM     13  C   UNL     1      -2.451  -1.867  -0.993  1.00  0.00    -0.051 C 
ATOM     14  C   UNL     1      -3.108  -2.987  -1.755  1.00  0.00     0.044 C 
ATOM     15  C   UNL     1      -3.225  -0.655  -0.597  1.00  0.00    -0.036 C 
ATOM     16  C   UNL     1      -4.132  -0.159  -1.463  1.00  0.00     0.051 C 
ATOM     17  C   UNL     1      -4.574   1.240  -1.399  1.00  0.00     0.156 C 
ATOM     18  O   UNL     1      -5.478   1.651  -2.174  1.00  0.00    -0.295 OA
ATOM     19  C   UNL     1      -3.878   2.194  -0.485  1.00  0.00     0.081 C 
ATOM     20  C   UNL     1      -3.534   1.468   0.810  1.00  0.00     0.020 C 
ATOM     21  C   UNL     1      -2.686   0.172   0.579  1.00  0.00    -0.003 C 
ATOM     22  C   UNL     1      -2.805  -0.668   1.880  1.00  0.00     0.017 C 
ENDROOT
BRANCH   4  23
ATOM     23  C   UNL     1       4.338   0.908   0.696  1.00  0.00     0.136 C 
ATOM     24  C   UNL     1       5.594   0.116   0.934  1.00  0.00     0.088 C 
ATOM     25  O   UNL     1       4.223   1.986   1.261  1.00  0.00    -0.299 OA
ENDBRANCH   4  23
TORSDOF 1
