REMARK SMILES CCCC(=O)N(c1ccccc1)C1CCN(CCc2ccccc2)CC1
REMARK SMILES IDX 13 1 14 2 15 3 16 4 25 5 26 6 6 7 4 8 5 9 3 10 2 11 1 12
REMARK SMILES IDX 7 13 8 14 12 15 9 16 11 17 10 18 17 19 18 20 19 21 20 22
REMARK SMILES IDX 24 23 21 24 23 25 22 26
REMARK H PARENT
REMARK Flexibility Score: inf
ROOT
ATOM      1  C   UNL     1      -1.437   0.010  -0.374  1.00  0.00     0.093 C 
ATOM      2  C   UNL     1      -0.673  -1.032  -1.211  1.00  0.00     0.041 C 
ATOM      3  C   UNL     1       0.745  -0.533  -1.514  1.00  0.00     0.086 C 
ATOM      4  N   UNL     1       1.475  -0.254  -0.258  1.00  0.00    -0.303 NA
ATOM      5  C   UNL     1       0.780   0.804   0.512  1.00  0.00     0.086 C 
ATOM      6  C   UNL     1      -0.634   0.349   0.891  1.00  0.00     0.041 C 
ENDROOT
BRANCH   1   7
ATOM      7  N   UNL     1      -2.800  -0.449  -0.026  1.00  0.00    -0.309 N 
BRANCH   7   8
ATOM      8  C   UNL     1      -3.951   0.421  -0.128  1.00  0.00     0.227 C 
ATOM      9  O   UNL     1      -5.108  -0.085  -0.113  1.00  0.00    -0.275 OA
BRANCH   8  10
ATOM     10  C   UNL     1      -3.805   1.915  -0.302  1.00  0.00     0.100 C 
BRANCH  10  11
ATOM     11  C   UNL     1      -5.052   2.685   0.155  1.00  0.00     0.006 C 
ATOM     12  C   UNL     1      -4.849   4.191   0.022  1.00  0.00     0.004 C 
ENDBRANCH  10  11
ENDBRANCH   8  10
ENDBRANCH   7   8
BRANCH   7  13
ATOM     13  C   UNL     1      -3.002  -1.759   0.534  1.00  0.00     0.044 A 
ATOM     14  C   UNL     1      -3.256  -2.854  -0.306  1.00  0.00     0.026 A 
ATOM     15  C   UNL     1      -3.001  -1.938   1.925  1.00  0.00     0.026 A 
ATOM     16  C   UNL     1      -3.474  -4.122   0.240  1.00  0.00     0.002 A 
ATOM     17  C   UNL     1      -3.219  -3.208   2.469  1.00  0.00     0.002 A 
ATOM     18  C   UNL     1      -3.453  -4.300   1.627  1.00  0.00     0.000 A 
ENDBRANCH   7  13
ENDBRANCH   1   7
BRANCH   4  19
ATOM     19  C   UNL     1       2.872   0.138  -0.548  1.00  0.00     0.089 C 
BRANCH  19  20
ATOM     20  C   UNL     1       3.788  -0.238   0.623  1.00  0.00     0.051 C 
BRANCH  20  21
ATOM     21  C   UNL     1       5.223   0.076   0.296  1.00  0.00    -0.047 A 
ATOM     22  C   UNL     1       6.039  -0.890  -0.318  1.00  0.00     0.004 A 
ATOM     23  C   UNL     1       5.744   1.355   0.550  1.00  0.00     0.004 A 
ATOM     24  C   UNL     1       7.362  -0.586  -0.650  1.00  0.00     0.000 A 
ATOM     25  C   UNL     1       7.069   1.656   0.216  1.00  0.00     0.000 A 
ATOM     26  C   UNL     1       7.878   0.685  -0.382  1.00  0.00     0.000 A 
ENDBRANCH  20  21
ENDBRANCH  19  20
ENDBRANCH   4  19
TORSDOF 8
