REMARK SMILES CCN(CC)CC(=O)Oc1ccc(NC(C)=O)cc1
REMARK SMILES IDX 7 1 8 2 6 3 3 4 2 5 1 6 4 7 5 8 9 9 10 10 11 11 19 12 12 13
REMARK SMILES IDX 18 14 13 15 14 16 15 17 16 19 17 20
REMARK H PARENT 14 18
REMARK Flexibility Score: inf
ROOT
ATOM      1  C   UNL     1      -1.385  -1.110   0.988  1.00  0.00     0.325 C 
ATOM      2  O   UNL     1      -0.985  -1.066   2.184  1.00  0.00    -0.250 OA
ENDROOT
BRANCH   1   3
ATOM      3  C   UNL     1      -2.853  -1.112   0.698  1.00  0.00     0.208 C 
BRANCH   3   4
ATOM      4  N   UNL     1      -3.163  -0.115  -0.349  1.00  0.00    -0.294 NA
BRANCH   4   5
ATOM      5  C   UNL     1      -4.361  -0.491  -1.139  1.00  0.00     0.081 C 
ATOM      6  C   UNL     1      -5.675  -0.476  -0.344  1.00  0.00     0.021 C 
ENDBRANCH   4   5
BRANCH   4   7
ATOM      7  C   UNL     1      -3.208   1.257   0.208  1.00  0.00     0.081 C 
ATOM      8  C   UNL     1      -3.170   2.318  -0.891  1.00  0.00     0.021 C 
ENDBRANCH   4   7
ENDBRANCH   3   4
ENDBRANCH   1   3
BRANCH   1   9
ATOM      9  O   UNL     1      -0.478  -1.237  -0.071  1.00  0.00    -0.426 OA
BRANCH   9  10
ATOM     10  C   UNL     1       0.889  -0.933  -0.004  1.00  0.00     0.131 A 
ATOM     11  C   UNL     1       1.763  -1.596  -0.872  1.00  0.00     0.049 A 
ATOM     12  C   UNL     1       1.400   0.044   0.869  1.00  0.00     0.049 A 
ATOM     13  C   UNL     1       3.133  -1.319  -0.848  1.00  0.00     0.030 A 
ATOM     14  C   UNL     1       2.770   0.322   0.894  1.00  0.00     0.030 A 
ATOM     15  C   UNL     1       3.652  -0.375   0.050  1.00  0.00     0.041 A 
BRANCH  15  16
ATOM     16  N   UNL     1       5.063  -0.092   0.037  1.00  0.00    -0.326 N 
ATOM     17  C   UNL     1       5.817   0.302   1.194  1.00  0.00     0.221 C 
ATOM     18  H   UNL     1       5.590  -0.261  -0.849  1.00  0.00     0.169 HD
ATOM     19  C   UNL     1       7.229   0.765   1.039  1.00  0.00     0.114 C 
ATOM     20  O   UNL     1       5.330   0.183   2.351  1.00  0.00    -0.275 OA
ENDBRANCH  15  16
ENDBRANCH   9  10
ENDBRANCH   1   9
TORSDOF 7
