REMARK SMILES CC[C@H](Nc1ncnc2[nH]cnc12)c1nc2cccc(F)c2c(=O)n1-c1ccccc1
REMARK SMILES IDX 3 1 2 2 1 3 4 4 5 6 6 7 13 8 7 9 9 10 12 11 8 12 10 13 11 14
REMARK SMILES IDX 14 16 15 17 25 18 16 19 23 20 17 21 22 22 24 23 18 24 20 25
REMARK SMILES IDX 19 26 21 27 26 28 27 29 31 30 28 31 30 32 29 33
REMARK H PARENT 4 5 10 15
REMARK Flexibility Score: inf
ROOT
ATOM      1  C   UNL     1       0.357   0.098  -1.356  1.00  0.00     0.147 C 
ENDROOT
BRANCH   1   2
ATOM      2  C   UNL     1       0.593  -0.257  -2.839  1.00  0.00     0.030 C 
ATOM      3  C   UNL     1      -0.518   0.271  -3.749  1.00  0.00     0.006 C 
ENDBRANCH   1   2
BRANCH   1   4
ATOM      4  N   UNL     1       1.549  -0.252  -0.581  1.00  0.00    -0.358 N 
ATOM      5  H   UNL     1       1.774  -1.266  -0.455  1.00  0.00     0.162 HD
BRANCH   4   6
ATOM      6  C   UNL     1       2.398   0.728   0.034  1.00  0.00     0.158 A 
ATOM      7  N   UNL     1       2.269   2.061  -0.249  1.00  0.00    -0.217 NA
ATOM      8  C   UNL     1       3.362   0.366   0.968  1.00  0.00     0.150 A 
ATOM      9  C   UNL     1       3.057   3.005   0.360  1.00  0.00     0.226 A 
ATOM     10  C   UNL     1       4.123   1.313   1.560  1.00  0.00     0.162 A 
ATOM     11  N   UNL     1       3.674  -0.852   1.447  1.00  0.00    -0.231 NA
ATOM     12  N   UNL     1       3.997   2.633   1.282  1.00  0.00    -0.217 NA
ATOM     13  N   UNL     1       4.957   0.747   2.437  1.00  0.00    -0.329 N 
ATOM     14  C   UNL     1       4.660  -0.574   2.344  1.00  0.00     0.199 A 
ATOM     15  H   UNL     1       5.657   1.210   3.057  1.00  0.00     0.169 HD
ENDBRANCH   4   6
ENDBRANCH   1   4
BRANCH   1  16
ATOM     16  C   UNL     1      -0.848  -0.607  -0.747  1.00  0.00     0.139 A 
ATOM     17  N   UNL     1      -1.275  -1.771  -1.305  1.00  0.00    -0.232 NA
ATOM     18  N   UNL     1      -1.446  -0.148   0.405  1.00  0.00    -0.262 N 
ATOM     19  C   UNL     1      -2.307  -2.479  -0.791  1.00  0.00     0.081 A 
ATOM     20  C   UNL     1      -2.498  -0.832   0.961  1.00  0.00     0.269 A 
ATOM     21  C   UNL     1      -2.719  -3.661  -1.418  1.00  0.00     0.029 A 
ATOM     22  C   UNL     1      -2.963  -2.022   0.368  1.00  0.00     0.102 A 
ATOM     23  O   UNL     1      -3.047  -0.394   2.011  1.00  0.00    -0.268 OA
ATOM     24  C   UNL     1      -3.786  -4.394  -0.896  1.00  0.00     0.005 A 
ATOM     25  C   UNL     1      -4.042  -2.772   0.888  1.00  0.00     0.138 A 
ATOM     26  C   UNL     1      -4.446  -3.951   0.252  1.00  0.00     0.040 A 
ATOM     27  F   UNL     1      -4.708  -2.375   2.003  1.00  0.00    -0.206 F 
BRANCH  18  28
ATOM     28  C   UNL     1      -0.958   1.033   1.069  1.00  0.00     0.050 A 
ATOM     29  C   UNL     1      -0.095   0.916   2.169  1.00  0.00     0.027 A 
ATOM     30  C   UNL     1      -1.350   2.306   0.627  1.00  0.00     0.027 A 
ATOM     31  C   UNL     1       0.393   2.062   2.804  1.00  0.00     0.002 A 
ATOM     32  C   UNL     1      -0.862   3.451   1.266  1.00  0.00     0.002 A 
ATOM     33  C   UNL     1       0.011   3.329   2.351  1.00  0.00     0.000 A 
ENDBRANCH  18  28
ENDBRANCH   1  16
TORSDOF 5
