REMARK SMILES COC(=O)C1=C(C)NC(C)=C(C(=O)OCCCN2CCC(c3ccccc3)(c3ccccc3)CC2)[C@H]1c1cccc([N+](=O)[O-])c1
REMARK SMILES IDX 15 1 14 2 12 3 13 4 11 5 8 6 6 7 9 8 7 10 5 11 10 12 36 13
REMARK SMILES IDX 3 14 4 15 2 16 1 17 37 18 45 19 38 20 41 21 39 22 40 23
REMARK SMILES IDX 42 24 44 25 43 26 16 27 17 28 18 29 19 30 35 31 20 32 34 33
REMARK SMILES IDX 21 34 22 35 23 36 27 37 24 38 26 39 25 40 28 41 29 42 33 43
REMARK SMILES IDX 30 44 32 45 31 46
REMARK H PARENT 8 9
REMARK Flexibility Score: inf
ROOT
ATOM      1  C   UNL     1      -0.979  -2.793  -0.099  1.00  0.00     0.234 C 
ENDROOT
BRANCH   1   2
ATOM      2  O   UNL     1      -1.859  -1.792  -0.591  1.00  0.00    -0.462 OA
BRANCH   2   3
ATOM      3  C   UNL     1      -2.431  -0.814   0.240  1.00  0.00     0.336 C 
ATOM      4  O   UNL     1      -2.086  -0.670   1.446  1.00  0.00    -0.246 OA
BRANCH   3   5
ATOM      5  C   UNL     1      -3.467   0.069  -0.315  1.00  0.00     0.068 C 
ATOM      6  N   UNL     1      -4.265   2.187  -1.092  1.00  0.00    -0.362 N 
ATOM      7  C   UNL     1      -5.539   1.664  -1.490  1.00  0.00     0.023 C 
ATOM      8  C   UNL     1      -3.217   1.367  -0.567  1.00  0.00     0.023 C 
ATOM      9  H   UNL     1      -4.086   3.203  -1.246  1.00  0.00     0.166 HD
ATOM     10  C   UNL     1      -6.544   2.636  -2.074  1.00  0.00     0.065 C 
ATOM     11  C   UNL     1      -5.783   0.345  -1.356  1.00  0.00     0.068 C 
ATOM     12  C   UNL     1      -1.884   2.021  -0.272  1.00  0.00     0.065 C 
ATOM     13  C   UNL     1      -4.839  -0.521  -0.532  1.00  0.00     0.098 C 
BRANCH  11  14
ATOM     14  C   UNL     1      -7.017  -0.302  -1.879  1.00  0.00     0.336 C 
ATOM     15  O   UNL     1      -7.565  -1.239  -1.218  1.00  0.00    -0.246 OA
BRANCH  14  16
ATOM     16  O   UNL     1      -7.586   0.104  -3.088  1.00  0.00    -0.466 OA
ATOM     17  C   UNL     1      -6.842   0.075  -4.311  1.00  0.00     0.282 C 
ENDBRANCH  14  16
ENDBRANCH  11  14
BRANCH  13  18
ATOM     18  C   UNL     1      -5.447  -0.872   0.812  1.00  0.00    -0.029 A 
ATOM     19  C   UNL     1      -5.994   0.127   1.650  1.00  0.00     0.090 A 
ATOM     20  C   UNL     1      -5.428  -2.212   1.260  1.00  0.00     0.005 A 
ATOM     21  C   UNL     1      -6.594  -0.230   2.879  1.00  0.00     0.269 A 
ATOM     22  C   UNL     1      -6.017  -2.562   2.469  1.00  0.00     0.007 A 
ATOM     23  C   UNL     1      -6.622  -1.585   3.250  1.00  0.00     0.085 A 
BRANCH  21  24
ATOM     24  N   UNL     1      -7.210   0.777   3.705  1.00  0.00     0.062 N 
ATOM     25  O   UNL     1      -7.009   2.119   3.461  1.00  0.00    -0.258 OA
ATOM     26  O   UNL     1      -7.983   0.459   4.636  1.00  0.00    -0.258 OA
ENDBRANCH  21  24
ENDBRANCH  13  18
ENDBRANCH   3   5
ENDBRANCH   2   3
ENDBRANCH   1   2
BRANCH   1  27
ATOM     27  C   UNL     1       0.323  -2.186   0.377  1.00  0.00     0.057 C 
BRANCH  27  28
ATOM     28  C   UNL     1       1.165  -1.579  -0.775  1.00  0.00     0.088 C 
BRANCH  28  29
ATOM     29  N   UNL     1       2.001  -0.478  -0.260  1.00  0.00    -0.303 NA
ATOM     30  C   UNL     1       2.719   0.267  -1.340  1.00  0.00     0.086 C 
ATOM     31  C   UNL     1       2.893  -0.935   0.826  1.00  0.00     0.086 C 
ATOM     32  C   UNL     1       4.247   0.008  -1.346  1.00  0.00     0.032 C 
ATOM     33  C   UNL     1       3.871   0.169   1.170  1.00  0.00     0.032 C 
ATOM     34  C   UNL     1       4.964   0.306   0.038  1.00  0.00     0.023 C 
BRANCH  34  35
ATOM     35  C   UNL     1       5.637   1.705   0.065  1.00  0.00    -0.037 A 
ATOM     36  C   UNL     1       5.498   2.569   1.184  1.00  0.00     0.004 A 
ATOM     37  C   UNL     1       6.729   1.942  -0.797  1.00  0.00     0.004 A 
ATOM     38  C   UNL     1       6.572   3.346   1.616  1.00  0.00     0.000 A 
ATOM     39  C   UNL     1       7.803   2.766  -0.376  1.00  0.00     0.000 A 
ATOM     40  C   UNL     1       7.755   3.387   0.865  1.00  0.00     0.000 A 
ENDBRANCH  34  35
BRANCH  34  41
ATOM     41  C   UNL     1       6.110  -0.712   0.293  1.00  0.00    -0.037 A 
ATOM     42  C   UNL     1       6.712  -0.816   1.566  1.00  0.00     0.004 A 
ATOM     43  C   UNL     1       6.762  -1.383  -0.777  1.00  0.00     0.004 A 
ATOM     44  C   UNL     1       7.797  -1.666   1.784  1.00  0.00     0.000 A 
ATOM     45  C   UNL     1       7.861  -2.212  -0.546  1.00  0.00     0.000 A 
ATOM     46  C   UNL     1       8.358  -2.382   0.740  1.00  0.00     0.000 A 
ENDBRANCH  34  41
ENDBRANCH  28  29
ENDBRANCH  27  28
ENDBRANCH   1  27
TORSDOF 12
