REMARK SMILES C#C[C@]1(O)CC[C@H]2[C@@H]3[C@H](C)CC4=C(CCC(=O)C4)[C@H]3CC[C@@]21C
REMARK SMILES IDX 7 1 6 2 5 3 3 4 22 5 23 6 21 7 20 8 19 9 13 10 12 11 18 12
REMARK SMILES IDX 16 13 17 14 15 15 14 16 11 17 9 18 10 19 8 20 4 21 2 23 1 24
REMARK H PARENT 4 22
REMARK Flexibility Score: inf
ROOT
ATOM      1  C   UNL     1      -1.444  -0.618   0.386  1.00  0.00     0.003 C 
ATOM      2  C   UNL     1      -2.291  -1.878   0.506  1.00  0.00     0.008 C 
ATOM      3  C   UNL     1      -3.739  -1.358   0.594  1.00  0.00     0.050 C 
ATOM      4  C   UNL     1      -3.696   0.176   0.322  1.00  0.00     0.130 C 
ATOM      5  C   UNL     1      -2.325   0.372  -0.398  1.00  0.00     0.011 C 
ATOM      6  C   UNL     1      -2.498  -0.002  -1.911  1.00  0.00     0.016 C 
ATOM      7  C   UNL     1      -1.669   1.779  -0.305  1.00  0.00     0.012 C 
ATOM      8  C   UNL     1      -0.194   1.762  -0.790  1.00  0.00     0.009 C 
ATOM      9  C   UNL     1       0.661   0.678  -0.065  1.00  0.00     0.019 C 
ATOM     10  C   UNL     1       2.120   0.638  -0.529  1.00  0.00    -0.067 C 
ATOM     11  C   UNL     1       2.815  -0.537  -0.610  1.00  0.00    -0.063 C 
ATOM     12  C   UNL     1       4.267  -0.517  -1.042  1.00  0.00     0.106 C 
ATOM     13  C   UNL     1       4.997   0.606  -0.361  1.00  0.00     0.137 C 
ATOM     14  O   UNL     1       6.186   0.496  -0.105  1.00  0.00    -0.299 OA
ATOM     15  C   UNL     1       4.271   1.878  -0.015  1.00  0.00     0.080 C 
ATOM     16  C   UNL     1       2.896   1.939  -0.697  1.00  0.00     0.039 C 
ATOM     17  C   UNL     1       2.177  -1.893  -0.358  1.00  0.00     0.035 C 
ATOM     18  C   UNL     1       0.862  -1.818   0.438  1.00  0.00    -0.006 C 
ATOM     19  C   UNL     1       1.136  -1.637   1.943  1.00  0.00     0.008 C 
ATOM     20  C   UNL     1      -0.017  -0.717  -0.194  1.00  0.00     0.003 C 
ENDROOT
BRANCH   4  21
ATOM     21  O   UNL     1      -4.770   0.581  -0.495  1.00  0.00    -0.377 OA
ATOM     22  H   UNL     1      -5.612   0.294  -0.052  1.00  0.00     0.212 HD
ENDBRANCH   4  21
BRANCH   4  23
ATOM     23  C   UNL     1      -3.771   0.913   1.608  1.00  0.00    -0.071 C 
ATOM     24  C   UNL     1      -3.835   1.510   2.654  1.00  0.00     0.007 C 
ENDBRANCH   4  23
TORSDOF 2
