REMARK SMILES CN1c2c(oc(=O)n(-c3ccccn3)c2=O)-c2ccccc2S1(=O)=O
REMARK SMILES IDX 1 1 2 2 3 3 4 4 5 5 6 6 7 7 8 8 15 9 16 10 17 11 18 12 19 13
REMARK SMILES IDX 20 14 21 15 22 16 23 17 24 18 25 19 9 20 10 21 14 22 11 23
REMARK SMILES IDX 13 24 12 25
REMARK H PARENT
REMARK Flexibility Score: inf
ROOT
ATOM      1  C   UNL     1      -0.953  -2.952  -0.901  1.00  0.00     0.164 C 
ATOM      2  N   UNL     1      -1.342  -1.750  -0.156  1.00  0.00    -0.260 N 
ATOM      3  C   UNL     1      -0.448  -0.624   0.020  1.00  0.00     0.161 A 
ATOM      4  C   UNL     1      -0.947   0.699   0.120  1.00  0.00     0.171 A 
ATOM      5  O   UNL     1      -0.090   1.706   0.243  1.00  0.00    -0.406 OA
ATOM      6  C   UNL     1       1.222   1.547   0.289  1.00  0.00     0.428 A 
ATOM      7  O   UNL     1       1.952   2.567   0.425  1.00  0.00    -0.223 OA
ATOM      8  N   UNL     1       1.772   0.298   0.216  1.00  0.00    -0.192 N 
ATOM      9  C   UNL     1       0.952  -0.791   0.099  1.00  0.00     0.290 A 
ATOM     10  O   UNL     1       1.454  -1.948   0.068  1.00  0.00    -0.266 OA
ATOM     11  C   UNL     1      -2.402   1.037   0.099  1.00  0.00     0.040 A 
ATOM     12  C   UNL     1      -2.797   2.383  -0.051  1.00  0.00     0.013 A 
ATOM     13  C   UNL     1      -4.148   2.739  -0.035  1.00  0.00     0.001 A 
ATOM     14  C   UNL     1      -5.127   1.761   0.137  1.00  0.00     0.001 A 
ATOM     15  C   UNL     1      -4.757   0.425   0.288  1.00  0.00     0.023 A 
ATOM     16  C   UNL     1      -3.404   0.061   0.267  1.00  0.00     0.099 A 
ATOM     17  S   UNL     1      -2.960  -1.615   0.437  1.00  0.00     0.265 S 
ATOM     18  O   UNL     1      -3.897  -2.461  -0.381  1.00  0.00    -0.201 OA
ATOM     19  O   UNL     1      -3.015  -2.029   1.880  1.00  0.00    -0.201 OA
ENDROOT
BRANCH   8  20
ATOM     20  C   UNL     1       3.203   0.123   0.288  1.00  0.00     0.145 A 
ATOM     21  C   UNL     1       4.052   0.771  -0.625  1.00  0.00     0.048 A 
ATOM     22  N   UNL     1       3.740  -0.696   1.236  1.00  0.00    -0.238 NA
ATOM     23  C   UNL     1       5.431   0.575  -0.537  1.00  0.00     0.005 A 
ATOM     24  C   UNL     1       5.081  -0.900   1.335  1.00  0.00     0.113 A 
ATOM     25  C   UNL     1       5.953  -0.264   0.448  1.00  0.00     0.020 A 
ENDBRANCH   8  20
TORSDOF 1
