REMARK SMILES CC(C)(C)NCC(O)CSc1nc(-c2ccc(C(N)=O)s2)cs1
REMARK SMILES IDX 9 1 7 2 6 3 5 4 2 6 1 7 3 8 4 9 8 10 10 12 11 13 12 14 23 15
REMARK SMILES IDX 13 16 22 17 14 18 15 19 21 20 16 21 17 22 18 23 19 24 20 25
REMARK H PARENT 5 5 8 11 19 26 19 27
REMARK Flexibility Score: inf
ROOT
ATOM      1  C   UNL     1      -0.882  -0.983   0.550  1.00  0.00     0.110 C 
ENDROOT
BRANCH   1   2
ATOM      2  C   UNL     1      -1.979  -0.758  -0.503  1.00  0.00     0.138 C 
BRANCH   2   3
ATOM      3  C   UNL     1      -2.785   0.530  -0.210  1.00  0.00     0.114 C 
BRANCH   3   4
ATOM      4  N   UNL     1      -3.774   0.354   0.878  1.00  0.00    -0.309 NA
ATOM      5  H   UNL     1      -3.554  -0.499   1.444  1.00  0.00     0.123 HD
BRANCH   4   6
ATOM      6  C   UNL     1      -5.202   0.321   0.470  1.00  0.00     0.010 C 
ATOM      7  C   UNL     1      -6.052   0.055   1.731  1.00  0.00     0.027 C 
ATOM      8  C   UNL     1      -5.637   1.687  -0.108  1.00  0.00     0.027 C 
ATOM      9  C   UNL     1      -5.479  -0.807  -0.549  1.00  0.00     0.027 C 
ENDBRANCH   4   6
ENDBRANCH   3   4
ENDBRANCH   2   3
BRANCH   2  10
ATOM     10  O   UNL     1      -1.379  -0.651  -1.768  1.00  0.00    -0.391 OA
ATOM     11  H   UNL     1      -2.082  -0.854  -2.439  1.00  0.00     0.211 HD
ENDBRANCH   2  10
ENDBRANCH   1   2
BRANCH   1  12
ATOM     12  S   UNL     1      -0.098  -2.623   0.336  1.00  0.00    -0.093 SA
BRANCH  12  13
ATOM     13  C   UNL     1       1.343  -2.012  -0.537  1.00  0.00     0.150 A 
ATOM     14  N   UNL     1       2.446  -1.545   0.084  1.00  0.00    -0.229 NA
ATOM     15  S   UNL     1       1.511  -1.983  -2.207  1.00  0.00    -0.116 S 
ATOM     16  C   UNL     1       3.402  -1.161  -0.805  1.00  0.00     0.092 A 
ATOM     17  C   UNL     1       3.060  -1.331  -2.146  1.00  0.00     0.097 A 
BRANCH  16  18
ATOM     18  C   UNL     1       4.694  -0.612  -0.360  1.00  0.00     0.054 A 
ATOM     19  C   UNL     1       5.082  -0.421   0.961  1.00  0.00     0.023 A 
ATOM     20  S   UNL     1       5.949  -0.107  -1.362  1.00  0.00    -0.128 S 
ATOM     21  C   UNL     1       6.367   0.120   1.093  1.00  0.00     0.026 A 
ATOM     22  C   UNL     1       6.997   0.357  -0.128  1.00  0.00     0.092 A 
BRANCH  22  23
ATOM     23  C   UNL     1       8.344   0.917  -0.341  1.00  0.00     0.258 C 
ATOM     24  N   UNL     1       9.182   1.291   0.755  1.00  0.00    -0.365 N 
ATOM     25  O   UNL     1       8.769   1.070  -1.517  1.00  0.00    -0.269 OA
ATOM     26  H   UNL     1       8.876   1.184   1.746  1.00  0.00     0.159 HD
ATOM     27  H   UNL     1      10.132   1.685   0.573  1.00  0.00     0.159 HD
ENDBRANCH  22  23
ENDBRANCH  16  18
ENDBRANCH  12  13
ENDBRANCH   1  12
TORSDOF 9
