REMARK SMILES CN(C)[C@@H]1C(O)=C(C(N)=O)C(=O)[C@@]2(O)C(O)=C3C(=O)c4c(O)ccc(Cl)c4[C@@](C)(O)[C@H]3C[C@@H]12
REMARK SMILES IDX 33 1 32 2 31 3 17 4 15 5 13 6 11 7 12 8 7 9 5 10 4 11 18 12
REMARK SMILES IDX 19 13 20 14 21 15 23 16 24 17 25 18 26 19 27 20 28 21 29 22
REMARK SMILES IDX 14 23 2 25 1 26 3 27 16 28 6 30 30 32 8 34 9 35 10 36 22 39
REMARK H PARENT 14 24 16 29 6 31 30 33 9 37 9 38 22 40
REMARK Flexibility Score: inf
ROOT
ATOM      1  C   UNL     1      -1.220   0.462  -0.944  1.00  0.00     0.062 C 
ATOM      2  C   UNL     1       0.152  -0.078  -1.479  1.00  0.00     0.021 C 
ATOM      3  C   UNL     1       1.373   0.817  -1.137  1.00  0.00     0.063 C 
ATOM      4  C   UNL     1       1.227   1.364   0.275  1.00  0.00     0.048 C 
ATOM      5  C   UNL     1       0.040   1.917   0.635  1.00  0.00     0.140 C 
ATOM      6  C   UNL     1      -1.094   1.908  -0.377  1.00  0.00     0.190 C 
ATOM      7  C   UNL     1      -2.392   2.338   0.264  1.00  0.00     0.211 C 
ATOM      8  O   UNL     1      -2.623   3.572   0.388  1.00  0.00    -0.290 OA
ATOM      9  C   UNL     1      -3.338   1.354   0.839  1.00  0.00     0.125 C 
ATOM     10  C   UNL     1      -3.057   0.034   0.822  1.00  0.00     0.126 C 
ATOM     11  C   UNL     1      -1.823  -0.527   0.101  1.00  0.00     0.130 C 
ATOM     12  C   UNL     1       2.295   1.063   1.240  1.00  0.00     0.197 C 
ATOM     13  O   UNL     1       2.624   1.886   2.136  1.00  0.00    -0.289 OA
ATOM     14  C   UNL     1       3.027  -0.206   1.085  1.00  0.00     0.072 A 
ATOM     15  C   UNL     1       3.515  -0.888   2.216  1.00  0.00     0.127 A 
ATOM     16  C   UNL     1       4.224  -2.078   2.056  1.00  0.00     0.048 A 
ATOM     17  C   UNL     1       4.475  -2.580   0.784  1.00  0.00     0.025 A 
ATOM     18  C   UNL     1       4.007  -1.915  -0.353  1.00  0.00     0.048 A 
ATOM     19  Cl  UNL     1       4.524  -2.583  -1.900  1.00  0.00    -0.084 Cl
ATOM     20  C   UNL     1       3.221  -0.733  -0.218  1.00  0.00     0.017 A 
ATOM     21  C   UNL     1       2.752   0.105  -1.420  1.00  0.00     0.096 C 
ATOM     22  C   UNL     1       3.848   1.157  -1.705  1.00  0.00     0.048 C 
ENDROOT
BRANCH   6  23
ATOM     23  O   UNL     1      -0.779   2.816  -1.409  1.00  0.00    -0.374 OA
ATOM     24  H   UNL     1      -1.502   2.776  -2.089  1.00  0.00     0.212 HD
ENDBRANCH   6  23
BRANCH  11  25
ATOM     25  N   UNL     1      -2.068  -1.821  -0.598  1.00  0.00    -0.299 NA
ATOM     26  C   UNL     1      -3.395  -2.003  -1.211  1.00  0.00     0.105 C 
ATOM     27  C   UNL     1      -1.592  -3.012   0.123  1.00  0.00     0.105 C 
ENDBRANCH  11  25
BRANCH   5  28
ATOM     28  O   UNL     1      -0.216   2.409   1.921  1.00  0.00    -0.508 OA
ATOM     29  H   UNL     1       0.425   2.360   2.698  1.00  0.00     0.293 HD
ENDBRANCH   5  28
BRANCH  10  30
ATOM     30  O   UNL     1      -3.887  -0.821   1.548  1.00  0.00    -0.510 OA
ATOM     31  H   UNL     1      -3.676  -1.793   1.710  1.00  0.00     0.293 HD
ENDBRANCH  10  30
BRANCH  21  32
ATOM     32  O   UNL     1       2.610  -0.713  -2.559  1.00  0.00    -0.385 OA
ATOM     33  H   UNL     1       2.393  -0.131  -3.336  1.00  0.00     0.211 HD
ENDBRANCH  21  32
BRANCH   9  34
ATOM     34  C   UNL     1      -4.570   1.857   1.501  1.00  0.00     0.255 C 
ATOM     35  N   UNL     1      -5.365   2.870   0.884  1.00  0.00    -0.365 N 
ATOM     36  O   UNL     1      -4.927   1.390   2.616  1.00  0.00    -0.269 OA
ATOM     37  H   UNL     1      -6.217   3.235   1.364  1.00  0.00     0.159 HD
ATOM     38  H   UNL     1      -5.157   3.197  -0.085  1.00  0.00     0.159 HD
ENDBRANCH   9  34
BRANCH  15  39
ATOM     39  O   UNL     1       3.282  -0.389   3.499  1.00  0.00    -0.507 OA
ATOM     40  H   UNL     1       3.634  -0.858   4.324  1.00  0.00     0.293 HD
ENDBRANCH  15  39
TORSDOF 7
