REMARK SMILES OCC(O)CO
REMARK SMILES IDX 3 1 2 2 1 3 4 5 5 7 6 8
REMARK H PARENT 1 4 4 6 6 9
REMARK Flexibility Score: inf
ROOT
ATOM      1  C   UNL     1       0.125   0.264  -0.319  1.00  0.00     0.165 C 
ENDROOT
BRANCH   1   2
ATOM      2  C   UNL     1       0.967  -0.637   0.596  1.00  0.00     0.190 C 
BRANCH   2   3
ATOM      3  O   UNL     1       2.314  -0.603   0.209  1.00  0.00    -0.394 OA
ATOM      4  H   UNL     1       2.707   0.217   0.608  1.00  0.00     0.210 HD
ENDBRANCH   2   3
ENDBRANCH   1   2
BRANCH   1   5
ATOM      5  O   UNL     1       0.562   1.591  -0.188  1.00  0.00    -0.388 OA
ATOM      6  H   UNL     1       0.232   2.083  -0.985  1.00  0.00     0.211 HD
ENDBRANCH   1   5
BRANCH   1   7
ATOM      7  C   UNL     1      -1.368   0.178   0.041  1.00  0.00     0.190 C 
BRANCH   7   8
ATOM      8  O   UNL     1      -1.859  -1.121  -0.157  1.00  0.00    -0.394 OA
ATOM      9  H   UNL     1      -1.951  -1.244  -1.138  1.00  0.00     0.210 HD
ENDBRANCH   7   8
ENDBRANCH   1   7
TORSDOF 5
