REMARK SMILES CCN(CC)c1cc(C)nc2ncnn12
REMARK SMILES IDX 3 1 2 2 1 3 4 4 5 5 6 6 7 7 15 8 8 9 11 10 14 11 9 12 10 13
REMARK SMILES IDX 12 14 13 15
REMARK H PARENT
REMARK Flexibility Score: inf
ROOT
ATOM      1  N   UNL     1      -1.196  -0.164  -0.210  1.00  0.00    -0.357 N 
ENDROOT
BRANCH   1   2
ATOM      2  C   UNL     1      -1.878   0.583  -1.275  1.00  0.00     0.114 C 
ATOM      3  C   UNL     1      -2.413   1.917  -0.759  1.00  0.00     0.027 C 
ENDBRANCH   1   2
BRANCH   1   4
ATOM      4  C   UNL     1      -1.977  -0.737   0.897  1.00  0.00     0.114 C 
ATOM      5  C   UNL     1      -1.592  -0.087   2.223  1.00  0.00     0.027 C 
ENDBRANCH   1   4
BRANCH   1   6
ATOM      6  C   UNL     1       0.238  -0.310  -0.244  1.00  0.00     0.135 A 
ATOM      7  C   UNL     1       1.081   0.812  -0.351  1.00  0.00     0.070 A 
ATOM      8  N   UNL     1       0.833  -1.531  -0.177  1.00  0.00    -0.181 N 
ATOM      9  C   UNL     1       2.480   0.619  -0.368  1.00  0.00     0.045 A 
ATOM     10  C   UNL     1       2.155  -1.695  -0.203  1.00  0.00     0.254 A 
ATOM     11  N   UNL     1       0.267  -2.720  -0.129  1.00  0.00    -0.152 NA
ATOM     12  C   UNL     1       3.397   1.795  -0.481  1.00  0.00     0.067 C 
ATOM     13  N   UNL     1       3.001  -0.642  -0.298  1.00  0.00    -0.216 NA
ATOM     14  N   UNL     1       2.517  -2.988  -0.162  1.00  0.00    -0.197 NA
ATOM     15  C   UNL     1       1.302  -3.595  -0.113  1.00  0.00     0.249 A 
ENDBRANCH   1   6
TORSDOF 3
