REMARK SMILES Cc1ccc(-n2nccn2)c(C(=O)N2CCN(c3nc4cc(Cl)ccc4o3)CC[C@H]2C)c1
REMARK SMILES IDX 15 1 14 2 30 3 31 4 29 5 12 7 13 8 11 9 5 10 32 11 4 12 2 13
REMARK SMILES IDX 3 14 1 15 6 16 7 17 10 18 8 19 9 20 16 21 17 22 28 23 18 25
REMARK SMILES IDX 19 26 27 27 20 28 26 29 21 30 25 31 22 32 24 33 23 34
REMARK H PARENT
REMARK Flexibility Score: 80.00
ROOT
ATOM      1  C   UNL     1      -0.568  -0.132  -0.705  1.00  0.00     0.141 C 
ENDROOT
BRANCH   1   2
ATOM      2  N   UNL     1      -0.962  -0.544   0.665  1.00  0.00    -0.334 N 
BRANCH   2   3
ATOM      3  C   UNL     1      -0.083  -0.448   1.855  1.00  0.00     0.084 C 
ATOM      4  C   UNL     1       0.390   0.992   2.132  1.00  0.00     0.031 C 
BRANCH   3   5
ATOM      5  C   UNL     1       1.077  -1.469   1.797  1.00  0.00     0.046 CG0
ATOM      6  G   UNL     1       1.613  -1.726   0.385  1.00  0.00     0.000 G0
ENDBRANCH   3   5
ENDBRANCH   2   3
BRANCH   2   7
ATOM      7  C   UNL     1      -2.190  -1.300   0.786  1.00  0.00     0.256 C 
ATOM      8  O   UNL     1      -2.287  -2.213   1.652  1.00  0.00    -0.269 OA
BRANCH   7   9
ATOM      9  C   UNL     1      -3.328  -1.072  -0.130  1.00  0.00     0.067 A 
ATOM     10  C   UNL     1      -3.918   0.206  -0.291  1.00  0.00     0.098 A 
ATOM     11  C   UNL     1      -3.792  -2.152  -0.897  1.00  0.00     0.019 A 
ATOM     12  C   UNL     1      -4.922   0.378  -1.257  1.00  0.00     0.031 A 
ATOM     13  C   UNL     1      -4.796  -1.968  -1.858  1.00  0.00    -0.050 A 
ATOM     14  C   UNL     1      -5.361  -0.699  -2.029  1.00  0.00     0.006 A 
ATOM     15  C   UNL     1      -5.301  -3.135  -2.655  1.00  0.00     0.044 C 
BRANCH  10  16
ATOM     16  N   UNL     1      -3.550   1.320   0.542  1.00  0.00    -0.151 N 
ATOM     17  N   UNL     1      -3.592   2.582   0.140  1.00  0.00    -0.157 NA
ATOM     18  N   UNL     1      -3.209   1.215   1.818  1.00  0.00    -0.157 NA
ATOM     19  C   UNL     1      -3.242   3.326   1.204  1.00  0.00     0.157 A 
ATOM     20  C   UNL     1      -3.004   2.470   2.256  1.00  0.00     0.157 A 
ENDBRANCH  10  16
ENDBRANCH   7   9
ENDBRANCH   2   7
ENDBRANCH   1   2
BRANCH   1  21
ATOM     21  C   UNL     1       0.873   0.389  -0.882  1.00  0.00     0.143 C 
BRANCH  21  22
ATOM     22  N   UNL     1       1.923  -0.462  -0.294  1.00  0.00    -0.324 N 
BRANCH  22  23
ATOM     23  C   UNL     1       1.613  -1.726   0.385  1.00  0.00     0.123 CG0
ATOM     24  G   UNL     1       1.077  -1.469   1.797  1.00  0.00     0.000 G0
ENDBRANCH  22  23
BRANCH  22  25
ATOM     25  C   UNL     1       3.276   0.029  -0.284  1.00  0.00     0.298 A 
ATOM     26  N   UNL     1       3.654   1.181  -0.903  1.00  0.00    -0.193 NA
ATOM     27  O   UNL     1       4.270  -0.590   0.335  1.00  0.00    -0.423 OA
ATOM     28  C   UNL     1       4.967   1.229  -0.619  1.00  0.00     0.113 A 
ATOM     29  C   UNL     1       5.326   0.150   0.131  1.00  0.00     0.156 A 
ATOM     30  C   UNL     1       5.889   2.201  -0.997  1.00  0.00     0.053 A 
ATOM     31  C   UNL     1       6.632  -0.051   0.567  1.00  0.00     0.051 A 
ATOM     32  C   UNL     1       7.224   2.035  -0.576  1.00  0.00     0.043 A 
ATOM     33  C   UNL     1       7.593   0.912   0.204  1.00  0.00     0.024 A 
ATOM     34  Cl  UNL     1       8.433   3.226  -1.020  1.00  0.00    -0.084 Cl
ENDBRANCH  22  25
ENDBRANCH  21  22
ENDBRANCH   1  21
TORSDOF 4
