REMARK SMILES COc1cc(CNC(=O)CCCC/C=C\C(C)C)ccc1O
REMARK SMILES IDX 10 1 8 2 7 3 9 5 6 6 5 7 3 8 21 9 4 10 20 11 19 12 2 13 1 14
REMARK SMILES IDX 22 15 11 17 12 18 13 19 14 20 15 21 16 22 17 23 18 24
REMARK H PARENT 7 4 22 16
REMARK Flexibility Score: inf
ROOT
ATOM      1  C   UNL     1       0.007   2.034  -2.273  1.00  0.00     0.100 C 
ENDROOT
BRANCH   1   2
ATOM      2  C   UNL     1       1.449   1.702  -2.502  1.00  0.00     0.220 C 
ATOM      3  N   UNL     1       2.393   1.829  -1.428  1.00  0.00    -0.352 N 
ATOM      4  H   UNL     1       2.077   2.246  -0.524  1.00  0.00     0.163 HD
ATOM      5  O   UNL     1       1.814   1.254  -3.623  1.00  0.00    -0.275 OA
BRANCH   3   6
ATOM      6  C   UNL     1       3.719   1.219  -1.478  1.00  0.00     0.151 C 
BRANCH   6   7
ATOM      7  C   UNL     1       3.621  -0.237  -1.109  1.00  0.00    -0.025 A 
ATOM      8  C   UNL     1       3.338  -1.969   0.594  1.00  0.00     0.160 A 
ATOM      9  C   UNL     1       3.337  -2.948  -0.419  1.00  0.00     0.157 A 
ATOM     10  C   UNL     1       3.479  -0.612   0.236  1.00  0.00     0.056 A 
ATOM     11  C   UNL     1       3.470  -2.570  -1.759  1.00  0.00     0.050 A 
ATOM     12  C   UNL     1       3.606  -1.224  -2.105  1.00  0.00     0.009 A 
BRANCH   8  13
ATOM     13  O   UNL     1       3.197  -2.376   1.931  1.00  0.00    -0.493 OA
ATOM     14  C   UNL     1       3.148  -1.489   3.044  1.00  0.00     0.278 C 
ENDBRANCH   8  13
BRANCH   9  15
ATOM     15  O   UNL     1       3.199  -4.303  -0.113  1.00  0.00    -0.504 OA
ATOM     16  H   UNL     1       3.086  -4.634   0.838  1.00  0.00     0.293 HD
ENDBRANCH   9  15
ENDBRANCH   6   7
ENDBRANCH   3   6
ENDBRANCH   1   2
BRANCH   1  17
ATOM     17  C   UNL     1      -0.722   0.819  -1.686  1.00  0.00     0.010 C 
BRANCH  17  18
ATOM     18  C   UNL     1      -2.217   1.083  -1.453  1.00  0.00     0.005 C 
BRANCH  18  19
ATOM     19  C   UNL     1      -2.466   2.053  -0.286  1.00  0.00     0.027 C 
BRANCH  19  20
ATOM     20  C   UNL     1      -3.915   2.039   0.128  1.00  0.00    -0.031 C 
ATOM     21  C   UNL     1      -4.475   1.102   0.917  1.00  0.00    -0.028 C 
BRANCH  21  22
ATOM     22  C   UNL     1      -3.726  -0.042   1.572  1.00  0.00     0.005 C 
ATOM     23  C   UNL     1      -3.462   0.289   3.046  1.00  0.00     0.012 C 
ATOM     24  C   UNL     1      -4.539  -1.335   1.445  1.00  0.00     0.012 C 
ENDBRANCH  21  22
ENDBRANCH  19  20
ENDBRANCH  18  19
ENDBRANCH  17  18
ENDBRANCH   1  17
TORSDOF 10
