REMARK SMILES CN(C)CC[C@@H](c1ccc(Cl)cc1)c1ccccn1.O=C(O)/C=C\C(=O)O
REMARK SMILES IDX 23 1 24 2 21 3 20 4 22 5 25 7 26 8 27 9
REMARK H PARENT 22 6 27 10
REMARK Flexibility Score: inf
ROOT
ATOM      1  C   UNL     1      -0.407   1.122  -0.577  1.00  0.00     0.100 C 
ATOM      2  C   UNL     1       0.303   1.163   0.560  1.00  0.00     0.100 C 
ENDROOT
BRANCH   1   3
ATOM      3  C   UNL     1      -0.905  -0.099  -1.234  1.00  0.00     0.328 C 
ATOM      4  O   UNL     1      -1.170  -0.071  -2.465  1.00  0.00    -0.247 OA
BRANCH   3   5
ATOM      5  O   UNL     1      -1.168  -1.254  -0.503  1.00  0.00    -0.478 OA
ATOM      6  H   UNL     1      -1.536  -2.083  -0.954  1.00  0.00     0.297 HD
ENDBRANCH   3   5
ENDBRANCH   1   3
BRANCH   2   7
ATOM      7  C   UNL     1       0.910   0.002   1.234  1.00  0.00     0.328 C 
ATOM      8  O   UNL     1       1.170   0.073   2.465  1.00  0.00    -0.247 OA
BRANCH   7   9
ATOM      9  O   UNL     1       1.277  -1.135   0.520  1.00  0.00    -0.478 OA
ATOM     10  H   UNL     1       1.719  -1.920   0.983  1.00  0.00     0.297 HD
ENDBRANCH   7   9
ENDBRANCH   2   7
TORSDOF 4
