REMARK SMILES CCCC[N+]1(C)[C@@H]2C[C@@H](OC(=O)[C@H](CO)c3ccccc3)C[C@H]1[C@@H]1O[C@@H]12
REMARK SMILES IDX 10 1 9 2 5 3 6 4 23 5 7 6 22 7 24 8 8 9 26 10 25 11 4 12
REMARK SMILES IDX 3 13 2 14 1 15 11 16 12 17 13 18 14 19 15 20 16 22 17 23
REMARK SMILES IDX 21 24 18 25 20 26 19 27
REMARK H PARENT 15 21
REMARK Flexibility Score: inf
ROOT
ATOM      1  O   UNL     1      -1.249   1.263   0.195  1.00  0.00    -0.461 OA
ENDROOT
BRANCH   1   2
ATOM      2  C   UNL     1       0.174   1.264   0.070  1.00  0.00     0.188 C 
ATOM      3  N   UNL     1       1.867  -1.145  -0.491  1.00  0.00    -0.316 N 
ATOM      4  C   UNL     1       2.343  -2.536  -0.813  1.00  0.00     0.335 C 
ATOM      5  C   UNL     1       1.011  -1.111   0.732  1.00  0.00     0.221 C 
ATOM      6  C   UNL     1       0.856  -0.704  -1.493  1.00  0.00     0.221 C 
ATOM      7  C   UNL     1       0.762   0.357   1.199  1.00  0.00     0.113 C 
ATOM      8  C   UNL     1      -0.376  -1.658   0.330  1.00  0.00     0.212 C 
ATOM      9  C   UNL     1       0.571   0.824  -1.382  1.00  0.00     0.113 C 
ATOM     10  C   UNL     1      -0.478  -1.408  -1.123  1.00  0.00     0.212 C 
ATOM     11  O   UNL     1      -0.390  -2.715  -0.596  1.00  0.00    -0.357 OA
BRANCH   3  12
ATOM     12  C   UNL     1       3.094  -0.269  -0.425  1.00  0.00     0.264 C 
BRANCH  12  13
ATOM     13  C   UNL     1       4.094  -0.684   0.687  1.00  0.00     0.061 C 
BRANCH  13  14
ATOM     14  C   UNL     1       5.291   0.276   0.786  1.00  0.00     0.002 C 
ATOM     15  C   UNL     1       6.305   0.070  -0.339  1.00  0.00     0.004 C 
ENDBRANCH  13  14
ENDBRANCH  12  13
ENDBRANCH   3  12
ENDBRANCH   1   2
BRANCH   1  16
ATOM     16  C   UNL     1      -2.087   2.229  -0.375  1.00  0.00     0.316 C 
ATOM     17  O   UNL     1      -1.598   3.261  -0.913  1.00  0.00    -0.251 OA
BRANCH  16  18
ATOM     18  C   UNL     1      -3.583   2.039  -0.363  1.00  0.00     0.155 C 
BRANCH  18  19
ATOM     19  C   UNL     1      -4.294   3.116   0.482  1.00  0.00     0.176 C 
BRANCH  19  20
ATOM     20  O   UNL     1      -3.772   3.194   1.782  1.00  0.00    -0.395 OA
ATOM     21  H   UNL     1      -2.987   3.800   1.743  1.00  0.00     0.210 HD
ENDBRANCH  19  20
ENDBRANCH  18  19
BRANCH  18  22
ATOM     22  C   UNL     1      -3.973   0.626   0.047  1.00  0.00    -0.032 A 
ATOM     23  C   UNL     1      -4.519  -0.254  -0.908  1.00  0.00     0.005 A 
ATOM     24  C   UNL     1      -3.751   0.151   1.356  1.00  0.00     0.005 A 
ATOM     25  C   UNL     1      -4.840  -1.569  -0.559  1.00  0.00     0.000 A 
ATOM     26  C   UNL     1      -4.080  -1.163   1.700  1.00  0.00     0.000 A 
ATOM     27  C   UNL     1      -4.621  -2.023   0.743  1.00  0.00     0.000 A 
ENDBRANCH  18  22
ENDBRANCH  16  18
ENDBRANCH   1  16
TORSDOF 9
