REMARK SMILES CC(C)(Oc1ccc(C2CC2(Cl)Cl)cc1)C(=O)O
REMARK SMILES IDX 1 1 2 2 3 3 4 4 5 5 6 6 15 7 7 8 14 9 8 10 9 11 10 12 11 13
REMARK SMILES IDX 12 14 13 15 16 16 17 17 18 18
REMARK H PARENT 18 19
REMARK Flexibility Score: inf
ROOT
ATOM      1  C   UNL     1      -2.518  -2.070   0.130  1.00  0.00     0.069 C 
ATOM      2  C   UNL     1      -2.874  -0.573   0.032  1.00  0.00     0.199 C 
ATOM      3  C   UNL     1      -3.151  -0.136  -1.421  1.00  0.00     0.069 C 
ENDROOT
BRANCH   2   4
ATOM      4  O   UNL     1      -1.852   0.244   0.630  1.00  0.00    -0.476 OA
BRANCH   4   5
ATOM      5  C   UNL     1      -0.489   0.398   0.305  1.00  0.00     0.121 A 
ATOM      6  C   UNL     1       0.256   1.270   1.110  1.00  0.00     0.047 A 
ATOM      7  C   UNL     1       0.160  -0.253  -0.764  1.00  0.00     0.047 A 
ATOM      8  C   UNL     1       1.615   1.486   0.871  1.00  0.00     0.008 A 
ATOM      9  C   UNL     1       1.521  -0.037  -1.003  1.00  0.00     0.008 A 
ATOM     10  C   UNL     1       2.265   0.810  -0.170  1.00  0.00    -0.042 A 
BRANCH  10  11
ATOM     11  C   UNL     1       3.717   1.091  -0.455  1.00  0.00     0.058 C 
ATOM     12  C   UNL     1       4.602  -0.139  -0.667  1.00  0.00     0.051 C 
ATOM     13  C   UNL     1       4.721   0.665   0.616  1.00  0.00     0.125 C 
ATOM     14  Cl  UNL     1       6.207   1.642   0.734  1.00  0.00    -0.101 Cl
ATOM     15  Cl  UNL     1       4.173  -0.221   2.071  1.00  0.00    -0.101 Cl
ENDBRANCH  10  11
ENDBRANCH   4   5
ENDBRANCH   2   4
BRANCH   2  16
ATOM     16  C   UNL     1      -4.140  -0.348   0.831  1.00  0.00     0.347 C 
ATOM     17  O   UNL     1      -5.212  -0.930   0.507  1.00  0.00    -0.248 OA
BRANCH  16  18
ATOM     18  O   UNL     1      -4.130   0.501   1.935  1.00  0.00    -0.478 OA
ATOM     19  H   UNL     1      -4.971   0.657   2.478  1.00  0.00     0.296 HD
ENDBRANCH  16  18
ENDBRANCH   2  16
TORSDOF 5
