REMARK SMILES C[C@]12CCC(=O)C=C1CC[C@@H]1[C@@H]2[C@@H](O)C[C@@]2(C)[C@H]1CC[C@]2(O)C(=O)CS
REMARK SMILES IDX 23 1 24 2 21 3 18 4 19 5 16 6 11 7 20 8 17 9 15 10 12 11
REMARK SMILES IDX 10 12 13 13 2 14 9 15 8 16 3 17 1 18 7 19 4 20 5 21 6 22
REMARK SMILES IDX 22 23 14 25 25 27 26 28
REMARK H PARENT 22 24 14 26 26 29
REMARK Flexibility Score: inf
ROOT
ATOM      1  C   UNL     1       4.420  -0.852  -0.294  1.00  0.00     0.174 C 
ATOM      2  O   UNL     1       4.646  -0.692  -1.485  1.00  0.00    -0.295 OA
ENDROOT
BRANCH   1   3
ATOM      3  C   UNL     1       3.250  -0.092   0.369  1.00  0.00     0.129 C 
ATOM      4  C   UNL     1       1.080   0.909   0.284  1.00  0.00     0.002 C 
ATOM      5  C   UNL     1       2.048   2.067   0.060  1.00  0.00     0.008 C 
ATOM      6  C   UNL     1       1.819  -0.324  -0.257  1.00  0.00     0.009 C 
ATOM      7  C   UNL     1      -0.372   1.048  -0.236  1.00  0.00    -0.000 C 
ATOM      8  C   UNL     1       3.448   1.440   0.202  1.00  0.00     0.044 C 
ATOM      9  C   UNL     1       1.899  -0.330  -1.822  1.00  0.00     0.015 C 
ATOM     10  C   UNL     1       1.044  -1.581   0.232  1.00  0.00     0.042 C 
ATOM     11  C   UNL     1      -1.180  -0.232   0.175  1.00  0.00     0.031 C 
ATOM     12  C   UNL     1      -1.032   2.299   0.378  1.00  0.00     0.009 C 
ATOM     13  C   UNL     1      -0.450  -1.574  -0.196  1.00  0.00     0.119 C 
ATOM     14  C   UNL     1      -2.710  -0.160  -0.227  1.00  0.00    -0.005 C 
ATOM     15  C   UNL     1      -2.479   2.445  -0.079  1.00  0.00     0.032 C 
ATOM     16  C   UNL     1      -3.270   1.197   0.226  1.00  0.00    -0.060 C 
ATOM     17  C   UNL     1      -3.474  -1.322   0.487  1.00  0.00     0.020 C 
ATOM     18  C   UNL     1      -2.933  -0.267  -1.759  1.00  0.00     0.016 C 
ATOM     19  C   UNL     1      -4.527   1.328   0.691  1.00  0.00     0.047 C 
ATOM     20  C   UNL     1      -4.996  -1.183   0.402  1.00  0.00     0.081 C 
ATOM     21  C   UNL     1      -5.420   0.175   0.859  1.00  0.00     0.155 C 
ATOM     22  O   UNL     1      -6.574   0.343   1.335  1.00  0.00    -0.295 OA
BRANCH   3  23
ATOM     23  O   UNL     1       3.228  -0.342   1.760  1.00  0.00    -0.381 OA
ATOM     24  H   UNL     1       3.086  -1.311   1.905  1.00  0.00     0.212 HD
ENDBRANCH   3  23
BRANCH  13  25
ATOM     25  O   UNL     1      -0.569  -1.868  -1.562  1.00  0.00    -0.393 OA
ATOM     26  H   UNL     1      -0.362  -2.833  -1.672  1.00  0.00     0.210 HD
ENDBRANCH  13  25
ENDBRANCH   1   3
BRANCH   1  27
ATOM     27  C   UNL     1       5.379  -1.740   0.466  1.00  0.00     0.144 C 
BRANCH  27  28
ATOM     28  S   UNL     1       7.073  -1.092   0.326  1.00  0.00    -0.171 SA
ATOM     29  H   UNL     1       6.761   0.081   1.042  1.00  0.00     0.103 HD
ENDBRANCH  27  28
ENDBRANCH   1  27
TORSDOF 5
