REMARK SMILES CNCCC(Oc1ccccc1OC)c1ccccc1
REMARK SMILES IDX 5 1 4 2 3 3 2 4 1 5 6 7 7 8 8 9 12 10 9 11 11 12 10 13 13 14
REMARK SMILES IDX 14 15 15 16 16 17 20 18 17 19 19 20 18 21
REMARK H PARENT 2 6
REMARK Flexibility Score: inf
ROOT
ATOM      1  C   UNL     1      -0.105   1.209   0.694  1.00  0.00     0.205 C 
ENDROOT
BRANCH   1   2
ATOM      2  C   UNL     1      -0.910   0.243   1.592  1.00  0.00     0.065 C 
BRANCH   2   3
ATOM      3  C   UNL     1      -1.679  -0.826   0.801  1.00  0.00     0.085 C 
BRANCH   3   4
ATOM      4  N   UNL     1      -2.353  -1.742   1.728  1.00  0.00    -0.320 NA
ATOM      5  C   UNL     1      -3.177  -2.697   0.986  1.00  0.00     0.101 C 
ATOM      6  H   UNL     1      -1.619  -2.292   2.234  1.00  0.00     0.122 HD
ENDBRANCH   3   4
ENDBRANCH   2   3
ENDBRANCH   1   2
BRANCH   1   7
ATOM      7  O   UNL     1       0.787   0.490  -0.165  1.00  0.00    -0.482 OA
BRANCH   7   8
ATOM      8  C   UNL     1       1.947  -0.197   0.231  1.00  0.00     0.162 A 
ATOM      9  C   UNL     1       2.494  -0.081   1.525  1.00  0.00     0.050 A 
ATOM     10  C   UNL     1       2.580  -1.021  -0.716  1.00  0.00     0.160 A 
ATOM     11  C   UNL     1       3.649  -0.785   1.868  1.00  0.00     0.004 A 
ATOM     12  C   UNL     1       3.746  -1.726  -0.357  1.00  0.00     0.050 A 
ATOM     13  C   UNL     1       4.273  -1.607   0.930  1.00  0.00     0.004 A 
BRANCH  10  14
ATOM     14  O   UNL     1       2.017  -1.114  -1.998  1.00  0.00    -0.493 OA
ATOM     15  C   UNL     1       2.543  -1.913  -3.054  1.00  0.00     0.278 C 
ENDBRANCH  10  14
ENDBRANCH   7   8
ENDBRANCH   1   7
BRANCH   1  16
ATOM     16  C   UNL     1      -1.030   2.082  -0.130  1.00  0.00    -0.008 A 
ATOM     17  C   UNL     1      -1.402   1.723  -1.440  1.00  0.00     0.007 A 
ATOM     18  C   UNL     1      -1.572   3.249   0.437  1.00  0.00     0.007 A 
ATOM     19  C   UNL     1      -2.281   2.529  -2.171  1.00  0.00     0.000 A 
ATOM     20  C   UNL     1      -2.451   4.051  -0.298  1.00  0.00     0.000 A 
ATOM     21  C   UNL     1      -2.803   3.693  -1.601  1.00  0.00     0.000 A 
ENDBRANCH   1  16
TORSDOF 7
