REMARK SMILES COc1ccc(CN2CCNCC2)c(OC)c1OC
REMARK SMILES IDX 3 1 17 2 14 3 6 4 5 5 4 6 2 7 1 8 18 9 19 10 15 11 16 12
REMARK SMILES IDX 7 13 8 14 9 15 13 16 10 17 12 18 11 19
REMARK H PARENT 11 20
REMARK Flexibility Score: inf
ROOT
ATOM      1  C   UNL     1      -2.817  -0.506   0.740  1.00  0.00     0.164 A 
ATOM      2  C   UNL     1      -2.330  -0.143  -0.524  1.00  0.00     0.203 A 
ATOM      3  C   UNL     1      -0.992  -0.428  -0.877  1.00  0.00     0.169 A 
ATOM      4  C   UNL     1      -0.121  -0.989   0.079  1.00  0.00     0.012 A 
ATOM      5  C   UNL     1      -0.609  -1.310   1.353  1.00  0.00     0.013 A 
ATOM      6  C   UNL     1      -1.947  -1.091   1.676  1.00  0.00     0.051 A 
ENDROOT
BRANCH   1   7
ATOM      7  O   UNL     1      -4.166  -0.249   1.035  1.00  0.00    -0.493 OA
ATOM      8  C   UNL     1      -4.792  -0.554   2.277  1.00  0.00     0.278 C 
ENDBRANCH   1   7
BRANCH   2   9
ATOM      9  O   UNL     1      -3.199   0.511  -1.406  1.00  0.00    -0.490 OA
ATOM     10  C   UNL     1      -2.921   1.801  -1.942  1.00  0.00     0.278 C 
ENDBRANCH   2   9
BRANCH   3  11
ATOM     11  O   UNL     1      -0.516  -0.169  -2.167  1.00  0.00    -0.492 OA
ATOM     12  C   UNL     1      -1.028  -0.845  -3.310  1.00  0.00     0.278 C 
ENDBRANCH   3  11
BRANCH   4  13
ATOM     13  C   UNL     1       1.333  -1.250  -0.233  1.00  0.00     0.124 C 
BRANCH  13  14
ATOM     14  N   UNL     1       2.194  -0.282   0.476  1.00  0.00    -0.296 NA
ATOM     15  C   UNL     1       3.578  -0.795   0.567  1.00  0.00     0.100 C 
ATOM     16  C   UNL     1       2.184   1.034  -0.190  1.00  0.00     0.100 C 
ATOM     17  C   UNL     1       4.570   0.299   1.020  1.00  0.00     0.096 C 
ATOM     18  C   UNL     1       2.953   2.069   0.657  1.00  0.00     0.096 C 
ATOM     19  N   UNL     1       3.874   1.443   1.620  1.00  0.00    -0.314 NA
ATOM     20  H   UNL     1       3.324   1.104   2.446  1.00  0.00     0.122 HD
ENDBRANCH  13  14
ENDBRANCH   4  13
TORSDOF 5
