REMARK SMILES CC1=C(C(=O)OC(C)C)C(c2cccc([N+](=O)[O-])c2)C(C(=O)OC2CN(C(c3ccccc3)c3ccccc3)C2)=C(N)N1
REMARK SMILES IDX 21 1 22 2 20 3 3 4 2 5 10 6 1 7 43 8 41 9 4 11 5 12 6 13
REMARK SMILES IDX 7 14 8 15 9 16 11 17 12 18 19 19 13 20 15 21 14 22 16 23
REMARK SMILES IDX 18 24 17 25 42 26 23 29 24 30 25 31 40 32 26 33 27 34 28 35
REMARK SMILES IDX 29 36 33 37 30 38 32 39 31 40 34 41 35 42 39 43 36 44 38 45
REMARK SMILES IDX 37 46
REMARK H PARENT 43 10 42 27 42 28
REMARK Flexibility Score: inf
ROOT
ATOM      1  C   UNL     1      -0.536  -0.360  -0.460  1.00  0.00     0.339 C 
ATOM      2  O   UNL     1      -0.677   0.793  -0.952  1.00  0.00    -0.246 OA
ENDROOT
BRANCH   1   3
ATOM      3  C   UNL     1      -1.735  -1.109   0.009  1.00  0.00     0.089 C 
ATOM      4  C   UNL     1      -4.076  -1.003   1.075  1.00  0.00     0.068 C 
ATOM      5  C   UNL     1      -3.957  -2.321   1.378  1.00  0.00     0.025 C 
ATOM      6  C   UNL     1      -3.034  -0.334   0.187  1.00  0.00     0.100 C 
ATOM      7  C   UNL     1      -4.952  -3.061   2.235  1.00  0.00     0.065 C 
ATOM      8  N   UNL     1      -2.844  -3.066   0.865  1.00  0.00    -0.345 N 
ATOM      9  C   UNL     1      -1.717  -2.440   0.241  1.00  0.00     0.112 C 
ATOM     10  H   UNL     1      -2.822  -4.103   0.997  1.00  0.00     0.168 HD
BRANCH   4  11
ATOM     11  C   UNL     1      -5.234  -0.156   1.499  1.00  0.00     0.337 C 
ATOM     12  O   UNL     1      -6.278  -0.662   1.990  1.00  0.00    -0.246 OA
BRANCH  11  13
ATOM     13  O   UNL     1      -5.169   1.228   1.292  1.00  0.00    -0.460 OA
BRANCH  13  14
ATOM     14  C   UNL     1      -6.284   2.106   1.444  1.00  0.00     0.170 C 
ATOM     15  C   UNL     1      -5.777   3.547   1.486  1.00  0.00     0.052 C 
ATOM     16  C   UNL     1      -7.264   1.919   0.279  1.00  0.00     0.052 C 
ENDBRANCH  13  14
ENDBRANCH  11  13
ENDBRANCH   4  11
BRANCH   6  17
ATOM     17  C   UNL     1      -3.644  -0.022  -1.168  1.00  0.00    -0.028 A 
ATOM     18  C   UNL     1      -4.030  -1.058  -2.036  1.00  0.00     0.005 A 
ATOM     19  C   UNL     1      -3.854   1.313  -1.561  1.00  0.00     0.090 A 
ATOM     20  C   UNL     1      -4.609  -0.765  -3.271  1.00  0.00     0.007 A 
ATOM     21  C   UNL     1      -4.447   1.616  -2.800  1.00  0.00     0.269 A 
ATOM     22  C   UNL     1      -4.820   0.562  -3.653  1.00  0.00     0.085 A 
BRANCH  21  23
ATOM     23  N   UNL     1      -4.677   2.987  -3.179  1.00  0.00     0.062 N 
ATOM     24  O   UNL     1      -4.316   4.016  -2.339  1.00  0.00    -0.258 OA
ATOM     25  O   UNL     1      -5.205   3.264  -4.276  1.00  0.00    -0.258 OA
ENDBRANCH  21  23
ENDBRANCH   6  17
BRANCH   9  26
ATOM     26  N   UNL     1      -0.614  -3.269  -0.151  1.00  0.00    -0.385 N 
ATOM     27  H   UNL     1      -0.511  -4.223   0.257  1.00  0.00     0.158 HD
ATOM     28  H   UNL     1      -0.039  -3.050  -0.992  1.00  0.00     0.158 HD
ENDBRANCH   9  26
ENDBRANCH   1   3
BRANCH   1  29
ATOM     29  O   UNL     1       0.747  -0.901  -0.320  1.00  0.00    -0.456 OA
BRANCH  29  30
ATOM     30  C   UNL     1       1.925  -0.223  -0.750  1.00  0.00     0.205 C 
ATOM     31  C   UNL     1       3.116  -1.159  -0.819  1.00  0.00     0.132 C 
ATOM     32  C   UNL     1       2.667   0.436   0.398  1.00  0.00     0.132 C 
ATOM     33  N   UNL     1       3.809  -0.493   0.298  1.00  0.00    -0.285 NA
BRANCH  33  34
ATOM     34  C   UNL     1       5.051   0.190  -0.143  1.00  0.00     0.117 C 
BRANCH  34  35
ATOM     35  C   UNL     1       6.106  -0.816  -0.566  1.00  0.00    -0.026 A 
ATOM     36  C   UNL     1       6.315  -2.005   0.161  1.00  0.00     0.006 A 
ATOM     37  C   UNL     1       6.937  -0.536  -1.666  1.00  0.00     0.006 A 
ATOM     38  C   UNL     1       7.319  -2.902  -0.221  1.00  0.00     0.000 A 
ATOM     39  C   UNL     1       7.939  -1.435  -2.044  1.00  0.00     0.000 A 
ATOM     40  C   UNL     1       8.129  -2.617  -1.323  1.00  0.00     0.000 A 
ENDBRANCH  34  35
BRANCH  34  41
ATOM     41  C   UNL     1       5.622   1.044   0.973  1.00  0.00    -0.026 A 
ATOM     42  C   UNL     1       5.615   0.596   2.309  1.00  0.00     0.006 A 
ATOM     43  C   UNL     1       6.255   2.263   0.667  1.00  0.00     0.006 A 
ATOM     44  C   UNL     1       6.207   1.363   3.316  1.00  0.00     0.000 A 
ATOM     45  C   UNL     1       6.850   3.026   1.678  1.00  0.00     0.000 A 
ATOM     46  C   UNL     1       6.833   2.572   2.999  1.00  0.00     0.000 A 
ENDBRANCH  34  41
ENDBRANCH  33  34
ENDBRANCH  29  30
ENDBRANCH   1  29
TORSDOF 12
