REMARK SMILES CC(C)NC[C@H](O)COc1ccc(CCOCC2CC2)cc1
REMARK SMILES IDX 10 1 11 2 12 3 13 4 21 5 22 6 9 7 8 8 6 9 5 10 4 11 2 13
REMARK SMILES IDX 1 14 3 15 7 16 14 18 15 19 16 20 17 21 18 22 19 23 20 24
REMARK H PARENT 4 12 7 17
REMARK Flexibility Score: inf
ROOT
ATOM      1  C   UNL     1      -0.339   1.180  -0.521  1.00  0.00     0.119 A 
ATOM      2  C   UNL     1       0.314   2.263  -1.122  1.00  0.00     0.047 A 
ATOM      3  C   UNL     1       1.653   2.536  -0.830  1.00  0.00     0.007 A 
ATOM      4  C   UNL     1       2.358   1.732   0.078  1.00  0.00    -0.045 A 
ATOM      5  C   UNL     1       1.710   0.639   0.675  1.00  0.00     0.007 A 
ATOM      6  C   UNL     1       0.371   0.366   0.383  1.00  0.00     0.047 A 
ENDROOT
BRANCH   1   7
ATOM      7  O   UNL     1      -1.683   0.948  -0.847  1.00  0.00    -0.491 OA
BRANCH   7   8
ATOM      8  C   UNL     1      -2.470  -0.115  -0.316  1.00  0.00     0.262 C 
BRANCH   8   9
ATOM      9  C   UNL     1      -3.888  -0.052  -0.900  1.00  0.00     0.165 C 
BRANCH   9  10
ATOM     10  C   UNL     1      -4.781  -1.159  -0.316  1.00  0.00     0.116 C 
BRANCH  10  11
ATOM     11  N   UNL     1      -4.944  -0.992   1.137  1.00  0.00    -0.312 NA
ATOM     12  H   UNL     1      -5.054  -1.936   1.580  1.00  0.00     0.123 HD
BRANCH  11  13
ATOM     13  C   UNL     1      -6.090  -0.133   1.492  1.00  0.00     0.047 C 
ATOM     14  C   UNL     1      -7.400  -0.936   1.568  1.00  0.00     0.024 C 
ATOM     15  C   UNL     1      -5.805   0.543   2.833  1.00  0.00     0.024 C 
ENDBRANCH  11  13
ENDBRANCH  10  11
ENDBRANCH   9  10
BRANCH   9  16
ATOM     16  O   UNL     1      -3.833  -0.209  -2.294  1.00  0.00    -0.388 OA
ATOM     17  H   UNL     1      -3.589   0.674  -2.678  1.00  0.00     0.211 HD
ENDBRANCH   9  16
ENDBRANCH   8   9
ENDBRANCH   7   8
ENDBRANCH   1   7
BRANCH   4  18
ATOM     18  C   UNL     1       3.812   2.006   0.365  1.00  0.00     0.064 C 
BRANCH  18  19
ATOM     19  C   UNL     1       4.717   1.343  -0.673  1.00  0.00     0.165 C 
BRANCH  19  20
ATOM     20  O   UNL     1       4.567  -0.061  -0.606  1.00  0.00    -0.381 OA
BRANCH  20  21
ATOM     21  C   UNL     1       5.491  -0.701  -1.465  1.00  0.00     0.163 C 
BRANCH  21  22
ATOM     22  C   UNL     1       6.778  -1.028  -0.696  1.00  0.00     0.015 C 
ATOM     23  C   UNL     1       6.738  -2.308   0.124  1.00  0.00     0.006 C 
ATOM     24  C   UNL     1       7.529  -2.261  -1.174  1.00  0.00     0.006 C 
ENDBRANCH  21  22
ENDBRANCH  20  21
ENDBRANCH  19  20
ENDBRANCH  18  19
ENDBRANCH   4  18
TORSDOF 12
