REMARK SMILES COc1nc(C)nc(Cl)c1NC1=NCCN1
REMARK SMILES IDX 3 1 4 2 5 3 6 4 7 5 8 6 9 7 10 8 2 9 1 10 11 11 12 12 13 14
REMARK SMILES IDX 16 15 14 16 15 17
REMARK H PARENT 11 13 16 18
REMARK Flexibility Score: inf
ROOT
ATOM      1  C   UNL     1      -1.151  -0.213   0.223  1.00  0.00     0.242 A 
ATOM      2  N   UNL     1      -2.401  -0.241  -0.314  1.00  0.00    -0.197 NA
ATOM      3  C   UNL     1      -3.092   0.903  -0.554  1.00  0.00     0.131 A 
ATOM      4  C   UNL     1      -4.445   0.841  -1.181  1.00  0.00     0.090 C 
ATOM      5  N   UNL     1      -2.529   2.106  -0.270  1.00  0.00    -0.219 NA
ATOM      6  C   UNL     1      -1.285   2.191   0.267  1.00  0.00     0.160 A 
ATOM      7  Cl  UNL     1      -0.615   3.780   0.599  1.00  0.00    -0.060 Cl
ATOM      8  C   UNL     1      -0.547   1.022   0.513  1.00  0.00     0.142 A 
ENDROOT
BRANCH   1   9
ATOM      9  O   UNL     1      -0.478  -1.407   0.506  1.00  0.00    -0.479 OA
ATOM     10  C   UNL     1      -1.027  -2.689   0.226  1.00  0.00     0.280 C 
ENDBRANCH   1   9
BRANCH   8  11
ATOM     11  N   UNL     1       0.767   1.095   1.088  1.00  0.00    -0.319 N 
ATOM     12  C   UNL     1       1.904   0.421   0.533  1.00  0.00     0.196 C 
ATOM     13  H   UNL     1       0.932   1.755   1.881  1.00  0.00     0.170 HD
ATOM     14  N   UNL     1       1.877  -0.186  -0.603  1.00  0.00    -0.251 NA
ATOM     15  N   UNL     1       3.168   0.417   1.161  1.00  0.00    -0.354 N 
ATOM     16  C   UNL     1       3.198  -0.733  -0.891  1.00  0.00     0.167 C 
ATOM     17  C   UNL     1       4.076  -0.315   0.301  1.00  0.00     0.139 C 
ATOM     18  H   UNL     1       3.407   0.864   2.073  1.00  0.00     0.163 HD
ENDBRANCH   8  11
TORSDOF 2
