REMARK SMILES CCCCOc1ccc(OCCCN2CCOCC2)cc1
REMARK SMILES IDX 6 1 7 2 8 3 9 4 20 5 21 6 5 7 4 8 3 9 2 10 1 11 10 12 11 13
REMARK SMILES IDX 12 14 13 15 14 16 15 17 19 18 16 19 18 20 17 21
REMARK H PARENT
REMARK Flexibility Score: inf
ROOT
ATOM      1  C   UNL     1       2.243   0.864  -1.652  1.00  0.00     0.119 A 
ATOM      2  C   UNL     1       1.162   0.344  -2.370  1.00  0.00     0.050 A 
ATOM      3  C   UNL     1       0.334  -0.628  -1.803  1.00  0.00     0.050 A 
ATOM      4  C   UNL     1       0.571  -1.096  -0.505  1.00  0.00     0.119 A 
ATOM      5  C   UNL     1       1.663  -0.581   0.219  1.00  0.00     0.050 A 
ATOM      6  C   UNL     1       2.491   0.393  -0.349  1.00  0.00     0.050 A 
ENDROOT
BRANCH   1   7
ATOM      7  O   UNL     1       3.043   1.839  -2.265  1.00  0.00    -0.494 OA
BRANCH   7   8
ATOM      8  C   UNL     1       4.169   2.462  -1.650  1.00  0.00     0.229 C 
BRANCH   8   9
ATOM      9  C   UNL     1       4.795   3.474  -2.609  1.00  0.00     0.041 C 
BRANCH   9  10
ATOM     10  C   UNL     1       3.838   4.634  -2.911  1.00  0.00     0.000 C 
ATOM     11  C   UNL     1       4.483   5.649  -3.851  1.00  0.00     0.004 C 
ENDBRANCH   9  10
ENDBRANCH   8   9
ENDBRANCH   7   8
ENDBRANCH   1   7
BRANCH   4  12
ATOM     12  O   UNL     1      -0.294  -2.073   0.014  1.00  0.00    -0.494 OA
BRANCH  12  13
ATOM     13  C   UNL     1      -0.301  -2.547   1.361  1.00  0.00     0.231 C 
BRANCH  13  14
ATOM     14  C   UNL     1      -0.889  -1.503   2.322  1.00  0.00     0.057 C 
BRANCH  14  15
ATOM     15  C   UNL     1      -2.296  -1.039   1.909  1.00  0.00     0.088 C 
BRANCH  15  16
ATOM     16  N   UNL     1      -3.229  -2.176   1.749  1.00  0.00    -0.299 NA
ATOM     17  C   UNL     1      -4.427  -1.755   1.000  1.00  0.00     0.113 C 
ATOM     18  C   UNL     1      -3.623  -2.746   3.058  1.00  0.00     0.113 C 
ATOM     19  C   UNL     1      -5.375  -2.955   0.789  1.00  0.00     0.175 C 
ATOM     20  C   UNL     1      -4.838  -3.684   2.918  1.00  0.00     0.175 C 
ATOM     21  O   UNL     1      -5.011  -4.078   1.573  1.00  0.00    -0.379 OA
ENDBRANCH  15  16
ENDBRANCH  14  15
ENDBRANCH  13  14
ENDBRANCH  12  13
ENDBRANCH   4  12
TORSDOF 9
