REMARK SMILES Cn1c(=O)c2c(ncn2CC2OCCO2)n(C)c1=O
REMARK SMILES IDX 10 1 9 2 17 3 16 4 6 5 18 6 5 7 7 8 2 9 19 10 3 11 8 12 1 13
REMARK SMILES IDX 4 14 11 15 12 16 15 17 13 18 14 19
REMARK H PARENT
REMARK Flexibility Score: inf
ROOT
ATOM      1  C   UNL     1       1.647  -0.422  -1.247  1.00  0.00     0.186 C 
ENDROOT
BRANCH   1   2
ATOM      2  N   UNL     1       0.459  -0.986  -0.603  1.00  0.00    -0.320 N 
ATOM      3  C   UNL     1      -3.572  -1.942   1.487  1.00  0.00     0.157 C 
ATOM      4  N   UNL     1      -2.793  -1.003   0.669  1.00  0.00    -0.279 N 
ATOM      5  C   UNL     1      -1.517  -1.295   0.299  1.00  0.00     0.167 A 
ATOM      6  C   UNL     1      -3.300   0.231   0.323  1.00  0.00     0.332 A 
ATOM      7  C   UNL     1      -0.752  -0.432  -0.410  1.00  0.00     0.152 A 
ATOM      8  N   UNL     1      -0.829  -2.416   0.594  1.00  0.00    -0.218 NA
ATOM      9  N   UNL     1      -2.549   1.121  -0.427  1.00  0.00    -0.261 N 
ATOM     10  O   UNL     1      -4.462   0.555   0.703  1.00  0.00    -0.247 OA
ATOM     11  C   UNL     1      -1.256   0.809  -0.783  1.00  0.00     0.282 A 
ATOM     12  C   UNL     1       0.381  -2.187   0.024  1.00  0.00     0.202 A 
ATOM     13  C   UNL     1      -3.105   2.440  -0.773  1.00  0.00     0.159 C 
ATOM     14  O   UNL     1      -0.542   1.627  -1.424  1.00  0.00    -0.267 OA
ENDBRANCH   1   2
BRANCH   1  15
ATOM     15  C   UNL     1       2.401   0.495  -0.281  1.00  0.00     0.269 C 
ATOM     16  O   UNL     1       2.830  -0.244   0.840  1.00  0.00    -0.348 OA
ATOM     17  O   UNL     1       3.490   1.082  -0.953  1.00  0.00    -0.348 OA
ATOM     18  C   UNL     1       4.193   0.014   0.971  1.00  0.00     0.192 C 
ATOM     19  C   UNL     1       4.529   1.080  -0.029  1.00  0.00     0.192 C 
ENDBRANCH   1  15
TORSDOF 2
