REMARK SMILES CNCC(O)c1ccc(O)cc1
REMARK SMILES IDX 4 1 3 2 2 3 1 4 5 6 6 8 7 9 12 10 8 11 11 12 9 13 10 14
REMARK H PARENT 2 5 5 7 10 15
REMARK Flexibility Score: inf
ROOT
ATOM      1  C   UNL     1      -0.635  -1.022  -0.234  1.00  0.00     0.158 C 
ENDROOT
BRANCH   1   2
ATOM      2  C   UNL     1      -1.673   0.087   0.027  1.00  0.00     0.117 C 
BRANCH   2   3
ATOM      3  N   UNL     1      -3.032  -0.436  -0.153  1.00  0.00    -0.317 NA
ATOM      4  C   UNL     1      -4.011   0.647  -0.052  1.00  0.00     0.101 C 
ATOM      5  H   UNL     1      -3.230  -1.107   0.627  1.00  0.00     0.122 HD
ENDBRANCH   2   3
ENDBRANCH   1   2
BRANCH   1   6
ATOM      6  O   UNL     1      -0.769  -2.086   0.677  1.00  0.00    -0.387 OA
ATOM      7  H   UNL     1      -0.744  -1.712   1.596  1.00  0.00     0.211 HD
ENDBRANCH   1   6
BRANCH   1   8
ATOM      8  C   UNL     1       0.780  -0.475  -0.209  1.00  0.00    -0.018 A 
ATOM      9  C   UNL     1       1.324   0.073   0.969  1.00  0.00     0.010 A 
ATOM     10  C   UNL     1       1.568  -0.503  -1.373  1.00  0.00     0.010 A 
ATOM     11  C   UNL     1       2.627   0.578   0.978  1.00  0.00     0.046 A 
ATOM     12  C   UNL     1       2.871   0.004  -1.360  1.00  0.00     0.046 A 
ATOM     13  C   UNL     1       3.404   0.544  -0.186  1.00  0.00     0.115 A 
BRANCH  13  14
ATOM     14  O   UNL     1       4.704   1.045  -0.188  1.00  0.00    -0.508 OA
ATOM     15  H   UNL     1       5.119   1.443   0.646  1.00  0.00     0.293 HD
ENDBRANCH  13  14
ENDBRANCH   1   8
TORSDOF 5
