REMARK SMILES COC1=C(OC)C(=O)C(C/C=C(\C)CC/C=C(\C)CC/C=C(\C)CC/C=C(\C)CC/C=C(\C)CC/C=C(\C)CC/C=C(\C)CC/C=C(\C)CC/C=C(\C)CCC=C(C)C)=C(C)C1=O
REMARK SMILES IDX 31 1 32 2 33 3 30 4 29 5 27 6 26 7 28 8 25 9 24 10 22 11
REMARK SMILES IDX 21 12 23 13 20 14 19 15 17 16 16 17 18 18 15 19 14 20 12 21
REMARK SMILES IDX 11 22 13 23 10 24 9 25 3 26 4 27 62 28 7 29 60 30 63 31 8 32
REMARK SMILES IDX 61 33 2 34 1 35 5 36 6 37 34 38 35 39 36 40 37 41 38 42
REMARK SMILES IDX 39 43 40 44 41 45 42 46 43 47 44 48 45 49 46 50 47 51 48 52
REMARK SMILES IDX 49 53 50 54 51 55 52 56 53 57 54 58 55 59 56 60 57 61 58 62
REMARK SMILES IDX 59 63
REMARK H PARENT
REMARK Flexibility Score: inf
ROOT
ATOM      1  C   UNL     1      -0.992  -2.768  -2.327  1.00  0.00    -0.028 C 
ATOM      2  C   UNL     1      -1.298  -2.054  -1.218  1.00  0.00    -0.077 C 
ATOM      3  C   UNL     1      -0.385  -0.978  -0.680  1.00  0.00     0.039 C 
ENDROOT
BRANCH   1   4
ATOM      4  C   UNL     1       0.276  -2.610  -3.136  1.00  0.00     0.032 C 
BRANCH   4   5
ATOM      5  C   UNL     1       1.160  -3.860  -3.040  1.00  0.00     0.034 C 
BRANCH   5   6
ATOM      6  C   UNL     1       1.668  -4.087  -1.632  1.00  0.00    -0.077 C 
ATOM      7  C   UNL     1       2.621  -3.260  -1.138  1.00  0.00    -0.028 C 
ATOM      8  C   UNL     1       1.093  -5.222  -0.817  1.00  0.00     0.039 C 
BRANCH   7   9
ATOM      9  C   UNL     1       3.253  -3.407   0.227  1.00  0.00     0.032 C 
BRANCH   9  10
ATOM     10  C   UNL     1       4.467  -4.344   0.178  1.00  0.00     0.034 C 
BRANCH  10  11
ATOM     11  C   UNL     1       5.638  -3.702  -0.536  1.00  0.00    -0.077 C 
ATOM     12  C   UNL     1       6.417  -2.828   0.146  1.00  0.00    -0.028 C 
ATOM     13  C   UNL     1       5.893  -4.052  -1.981  1.00  0.00     0.039 C 
BRANCH  12  14
ATOM     14  C   UNL     1       7.630  -2.126  -0.414  1.00  0.00     0.032 C 
BRANCH  14  15
ATOM     15  C   UNL     1       8.856  -3.051  -0.431  1.00  0.00     0.034 C 
BRANCH  15  16
ATOM     16  C   UNL     1      10.134  -2.254  -0.576  1.00  0.00    -0.077 C 
ATOM     17  C   UNL     1      10.900  -2.027   0.515  1.00  0.00    -0.028 C 
ATOM     18  C   UNL     1      10.513  -1.736  -1.939  1.00  0.00     0.039 C 
BRANCH  17  19
ATOM     19  C   UNL     1      12.230  -1.315   0.502  1.00  0.00     0.032 C 
BRANCH  19  20
ATOM     20  C   UNL     1      12.068   0.202   0.642  1.00  0.00     0.034 C 
BRANCH  20  21
ATOM     21  C   UNL     1      13.415   0.841   0.895  1.00  0.00    -0.077 C 
ATOM     22  C   UNL     1      13.848   0.978   2.168  1.00  0.00    -0.023 C 
ATOM     23  C   UNL     1      14.282   1.199  -0.286  1.00  0.00     0.039 C 
BRANCH  22  24
ATOM     24  C   UNL     1      15.242   1.414   2.567  1.00  0.00     0.067 C 
BRANCH  24  25
ATOM     25  C   UNL     1      15.538   2.875   2.265  1.00  0.00     0.014 C 
ATOM     26  C   UNL     1      16.375   5.606   1.691  1.00  0.00     0.213 C 
ATOM     27  C   UNL     1      17.120   4.611   1.168  1.00  0.00     0.213 C 
ATOM     28  C   UNL     1      15.198   5.291   2.524  1.00  0.00     0.227 C 
ATOM     29  C   UNL     1      16.672   3.200   1.356  1.00  0.00     0.228 C 
ATOM     30  C   UNL     1      14.858   3.888   2.863  1.00  0.00     0.008 C 
ATOM     31  O   UNL     1      14.493   6.240   2.961  1.00  0.00    -0.285 OA
ATOM     32  O   UNL     1      17.248   2.269   0.731  1.00  0.00    -0.285 OA
ATOM     33  C   UNL     1      13.710   3.635   3.814  1.00  0.00     0.049 C 
BRANCH  26  34
ATOM     34  O   UNL     1      16.702   6.965   1.537  1.00  0.00    -0.489 OA
ATOM     35  C   UNL     1      17.169   7.560   0.328  1.00  0.00     0.279 C 
ENDBRANCH  26  34
BRANCH  27  36
ATOM     36  O   UNL     1      18.310   4.937   0.493  1.00  0.00    -0.489 OA
ATOM     37  C   UNL     1      19.313   4.016   0.083  1.00  0.00     0.279 C 
ENDBRANCH  27  36
ENDBRANCH  24  25
ENDBRANCH  22  24
ENDBRANCH  20  21
ENDBRANCH  19  20
ENDBRANCH  17  19
ENDBRANCH  15  16
ENDBRANCH  14  15
ENDBRANCH  12  14
ENDBRANCH  10  11
ENDBRANCH   9  10
ENDBRANCH   7   9
ENDBRANCH   5   6
ENDBRANCH   4   5
ENDBRANCH   1   4
BRANCH   2  38
ATOM     38  C   UNL     1      -2.621  -2.304  -0.532  1.00  0.00     0.034 C 
BRANCH  38  39
ATOM     39  C   UNL     1      -3.755  -1.609  -1.294  1.00  0.00     0.032 C 
BRANCH  39  40
ATOM     40  C   UNL     1      -5.094  -1.888  -0.658  1.00  0.00    -0.028 C 
ATOM     41  C   UNL     1      -5.852  -2.975  -0.929  1.00  0.00    -0.077 C 
ATOM     42  C   UNL     1      -5.416  -4.030  -1.917  1.00  0.00     0.039 C 
BRANCH  41  43
ATOM     43  C   UNL     1      -7.203  -3.129  -0.265  1.00  0.00     0.034 C 
BRANCH  43  44
ATOM     44  C   UNL     1      -8.345  -2.704  -1.197  1.00  0.00     0.032 C 
BRANCH  44  45
ATOM     45  C   UNL     1      -8.467  -1.202  -1.309  1.00  0.00    -0.028 C 
ATOM     46  C   UNL     1      -9.487  -0.598  -1.954  1.00  0.00    -0.077 C 
ATOM     47  C   UNL     1     -10.531  -1.397  -2.696  1.00  0.00     0.039 C 
BRANCH  46  48
ATOM     48  C   UNL     1      -9.630   0.910  -1.870  1.00  0.00     0.034 C 
BRANCH  48  49
ATOM     49  C   UNL     1     -10.052   1.365  -0.465  1.00  0.00     0.032 C 
BRANCH  49  50
ATOM     50  C   UNL     1     -11.313   0.657  -0.019  1.00  0.00    -0.028 C 
ATOM     51  C   UNL     1     -11.379  -0.236   0.995  1.00  0.00    -0.077 C 
ATOM     52  C   UNL     1     -10.194  -0.530   1.885  1.00  0.00     0.039 C 
BRANCH  51  53
ATOM     53  C   UNL     1     -12.679  -0.965   1.255  1.00  0.00     0.034 C 
BRANCH  53  54
ATOM     54  C   UNL     1     -13.577  -0.189   2.226  1.00  0.00     0.032 C 
BRANCH  54  55
ATOM     55  C   UNL     1     -14.153   1.048   1.585  1.00  0.00    -0.028 C 
ATOM     56  C   UNL     1     -15.316   1.081   0.895  1.00  0.00    -0.077 C 
ATOM     57  C   UNL     1     -16.180  -0.147   0.736  1.00  0.00     0.039 C 
BRANCH  56  58
ATOM     58  C   UNL     1     -15.765   2.383   0.269  1.00  0.00     0.034 C 
BRANCH  58  59
ATOM     59  C   UNL     1     -16.177   3.394   1.346  1.00  0.00     0.032 C 
BRANCH  59  60
ATOM     60  C   UNL     1     -16.801   4.627   0.737  1.00  0.00    -0.028 C 
ATOM     61  C   UNL     1     -17.227   5.673   1.476  1.00  0.00    -0.080 C 
ATOM     62  C   UNL     1     -17.093   5.685   2.980  1.00  0.00     0.039 C 
ATOM     63  C   UNL     1     -17.857   6.847   0.775  1.00  0.00     0.039 C 
ENDBRANCH  59  60
ENDBRANCH  58  59
ENDBRANCH  56  58
ENDBRANCH  54  55
ENDBRANCH  53  54
ENDBRANCH  51  53
ENDBRANCH  49  50
ENDBRANCH  48  49
ENDBRANCH  46  48
ENDBRANCH  44  45
ENDBRANCH  43  44
ENDBRANCH  41  43
ENDBRANCH  39  40
ENDBRANCH  38  39
ENDBRANCH   2  38
TORSDOF 31
