REMARK SMILES O=c1ccc2ccc(OCCCCN3CCN(c4cccc5sccc45)CC3)cc2[nH]1
REMARK SMILES IDX 11 1 10 2 9 3 8 4 1 5 2 6 31 7 3 8 30 9 4 11 29 12 5 13 6 14
REMARK SMILES IDX 7 15 12 16 13 17 14 18 15 19 28 20 16 21 27 22 17 23 18 24
REMARK SMILES IDX 26 25 19 26 25 27 22 28 20 29 24 30 23 31 21 32
REMARK H PARENT 31 10
REMARK Flexibility Score: inf
ROOT
ATOM      1  C   UNL     1       1.664  -0.888   1.153  1.00  0.00     0.043 C 
ENDROOT
BRANCH   1   2
ATOM      2  C   UNL     1       2.382   0.066   2.122  1.00  0.00     0.229 C 
BRANCH   2   3
ATOM      3  O   UNL     1       3.163   1.037   1.421  1.00  0.00    -0.494 OA
BRANCH   3   4
ATOM      4  C   UNL     1       4.359   0.782   0.730  1.00  0.00     0.121 A 
ATOM      5  O   UNL     1       8.665  -3.157  -0.380  1.00  0.00    -0.270 OA
ATOM      6  C   UNL     1       8.068  -2.052  -0.485  1.00  0.00     0.248 A 
ATOM      7  N   UNL     1       6.914  -1.833   0.207  1.00  0.00    -0.322 N 
ATOM      8  C   UNL     1       8.592  -1.056  -1.315  1.00  0.00     0.072 A 
ATOM      9  C   UNL     1       6.241  -0.647   0.114  1.00  0.00     0.052 A 
ATOM     10  H   UNL     1       6.543  -2.595   0.822  1.00  0.00     0.170 HD
ATOM     11  C   UNL     1       7.928   0.165  -1.429  1.00  0.00     0.016 A 
ATOM     12  C   UNL     1       5.052  -0.442   0.833  1.00  0.00     0.073 A 
ATOM     13  C   UNL     1       6.744   0.383  -0.713  1.00  0.00    -0.002 A 
ATOM     14  C   UNL     1       6.058   1.602  -0.805  1.00  0.00     0.014 A 
ATOM     15  C   UNL     1       4.877   1.796  -0.084  1.00  0.00     0.047 A 
ENDBRANCH   3   4
ENDBRANCH   2   3
ENDBRANCH   1   2
BRANCH   1  16
ATOM     16  C   UNL     1       0.823  -0.166   0.084  1.00  0.00     0.019 C 
BRANCH  16  17
ATOM     17  C   UNL     1      -0.447   0.481   0.663  1.00  0.00     0.085 C 
BRANCH  17  18
ATOM     18  N   UNL     1      -1.222   1.155  -0.403  1.00  0.00    -0.300 NA
ATOM     19  C   UNL     1      -1.878   0.184  -1.326  1.00  0.00     0.106 C 
ATOM     20  C   UNL     1      -2.129   2.190   0.148  1.00  0.00     0.106 C 
ATOM     21  C   UNL     1      -3.342   0.521  -1.652  1.00  0.00     0.132 C 
ATOM     22  C   UNL     1      -3.456   1.597   0.638  1.00  0.00     0.132 C 
ATOM     23  N   UNL     1      -4.072   0.782  -0.411  1.00  0.00    -0.368 N 
BRANCH  23  24
ATOM     24  C   UNL     1      -5.452   0.402  -0.298  1.00  0.00     0.045 A 
ATOM     25  C   UNL     1      -5.825  -0.941  -0.119  1.00  0.00     0.016 A 
ATOM     26  C   UNL     1      -6.468   1.376  -0.381  1.00  0.00     0.026 A 
ATOM     27  C   UNL     1      -4.965  -2.042   0.008  1.00  0.00     0.022 A 
ATOM     28  C   UNL     1      -7.168  -1.285  -0.034  1.00  0.00     0.036 A 
ATOM     29  C   UNL     1      -7.825   1.008  -0.291  1.00  0.00     0.004 A 
ATOM     30  C   UNL     1      -5.648  -3.245   0.182  1.00  0.00     0.066 A 
ATOM     31  S   UNL     1      -7.312  -2.942   0.186  1.00  0.00    -0.144 S 
ATOM     32  C   UNL     1      -8.185  -0.337  -0.116  1.00  0.00     0.020 A 
ENDBRANCH  23  24
ENDBRANCH  17  18
ENDBRANCH  16  17
ENDBRANCH   1  16
TORSDOF 7
