REMARK SMILES O=c1cc(O)c(Cl)c[nH]1
REMARK SMILES IDX 4 1 3 2 2 3 1 4 9 5 8 6 6 7 7 8 5 10
REMARK H PARENT 9 9 5 11
REMARK Flexibility Score: inf
ROOT
ATOM      1  C   UNL     1       1.052   0.337   0.056  1.00  0.00     0.141 A 
ATOM      2  C   UNL     1       0.093   1.321   0.305  1.00  0.00     0.119 A 
ATOM      3  C   UNL     1      -1.265   0.992   0.258  1.00  0.00     0.251 A 
ATOM      4  O   UNL     1      -2.134   1.877   0.482  1.00  0.00    -0.269 OA
ATOM      5  N   UNL     1      -1.648  -0.282  -0.030  1.00  0.00    -0.327 N 
ATOM      6  C   UNL     1      -0.734  -1.260  -0.277  1.00  0.00     0.110 A 
ATOM      7  C   UNL     1       0.635  -0.974  -0.240  1.00  0.00     0.099 A 
ATOM      8  Cl  UNL     1       1.785  -2.263  -0.564  1.00  0.00    -0.079 Cl
ATOM      9  H   UNL     1      -2.665  -0.522  -0.064  1.00  0.00     0.169 HD
ENDROOT
BRANCH   1  10
ATOM     10  O   UNL     1       2.403   0.685   0.108  1.00  0.00    -0.506 OA
ATOM     11  H   UNL     1       3.145   0.018  -0.063  1.00  0.00     0.293 HD
ENDBRANCH   1  10
TORSDOF 1
