REMARK SMILES Cc1nccn1CCC(C(N)=O)(c1ccccc1)c1ccccc1
REMARK SMILES IDX 8 1 7 2 6 3 1 4 2 5 3 6 4 7 5 8 9 9 10 10 11 11 12 12 13 15
REMARK SMILES IDX 14 16 18 17 15 18 17 19 16 20 19 21 20 22 24 23 21 24 23 25
REMARK SMILES IDX 22 26
REMARK H PARENT 11 13 11 14
REMARK Flexibility Score: inf
ROOT
ATOM      1  C   UNL     1      -0.796   0.406  -0.025  1.00  0.00     0.048 C 
ENDROOT
BRANCH   1   2
ATOM      2  C   UNL     1      -1.551  -0.480  -1.036  1.00  0.00     0.125 C 
BRANCH   2   3
ATOM      3  N   UNL     1      -2.908  -0.744  -0.556  1.00  0.00    -0.335 N 
ATOM      4  C   UNL     1      -4.096   1.207  -1.623  1.00  0.00     0.087 C 
ATOM      5  C   UNL     1      -4.027  -0.015  -0.762  1.00  0.00     0.105 A 
ATOM      6  N   UNL     1      -5.098  -0.513  -0.109  1.00  0.00    -0.242 NA
ATOM      7  C   UNL     1      -4.618  -1.594   0.541  1.00  0.00     0.131 A 
ATOM      8  C   UNL     1      -3.274  -1.734   0.275  1.00  0.00     0.107 A 
ENDBRANCH   2   3
ENDBRANCH   1   2
BRANCH   1   9
ATOM      9  C   UNL     1       0.761   0.501  -0.220  1.00  0.00     0.100 C 
BRANCH   9  10
ATOM     10  C   UNL     1       1.015   1.275  -1.523  1.00  0.00     0.232 C 
ATOM     11  N   UNL     1       0.831   0.657  -2.801  1.00  0.00    -0.369 N 
ATOM     12  O   UNL     1       1.362   2.487  -1.491  1.00  0.00    -0.274 OA
ATOM     13  H   UNL     1       0.973   1.211  -3.675  1.00  0.00     0.159 HD
ATOM     14  H   UNL     1       0.588  -0.354  -2.892  1.00  0.00     0.159 HD
ENDBRANCH   9  10
BRANCH   9  15
ATOM     15  C   UNL     1       1.359   1.293   0.978  1.00  0.00    -0.028 A 
ATOM     16  C   UNL     1       2.485   0.836   1.711  1.00  0.00     0.005 A 
ATOM     17  C   UNL     1       0.808   2.544   1.352  1.00  0.00     0.005 A 
ATOM     18  C   UNL     1       3.001   1.576   2.779  1.00  0.00     0.000 A 
ATOM     19  C   UNL     1       1.331   3.277   2.420  1.00  0.00     0.000 A 
ATOM     20  C   UNL     1       2.422   2.792   3.136  1.00  0.00     0.000 A 
ENDBRANCH   9  15
BRANCH   9  21
ATOM     21  C   UNL     1       1.403  -0.910  -0.288  1.00  0.00    -0.028 A 
ATOM     22  C   UNL     1       2.579  -1.141  -1.045  1.00  0.00     0.005 A 
ATOM     23  C   UNL     1       0.944  -1.962   0.541  1.00  0.00     0.005 A 
ATOM     24  C   UNL     1       3.198  -2.393  -1.049  1.00  0.00     0.000 A 
ATOM     25  C   UNL     1       1.569  -3.212   0.531  1.00  0.00     0.000 A 
ATOM     26  C   UNL     1       2.687  -3.431  -0.271  1.00  0.00     0.000 A 
ENDBRANCH   9  21
ENDBRANCH   1   9
TORSDOF 6
