REMARK SMILES Cc1c(Cl)cccc1Nc1ccccc1C(=O)O
REMARK SMILES IDX 10 1 11 2 12 3 13 4 14 5 15 6 9 7 8 9 1 10 2 11 3 12 4 13
REMARK SMILES IDX 5 14 7 15 6 16 16 17 17 18 18 19
REMARK H PARENT 9 8 18 20
REMARK Flexibility Score: inf
ROOT
ATOM      1  C   UNL     1       1.290  -0.149   0.951  1.00  0.00     0.053 A 
ATOM      2  C   UNL     1       1.915  -0.939   1.928  1.00  0.00     0.027 A 
ATOM      3  C   UNL     1       3.254  -1.308   1.793  1.00  0.00     0.002 A 
ATOM      4  C   UNL     1       3.985  -0.889   0.683  1.00  0.00     0.001 A 
ATOM      5  C   UNL     1       3.387  -0.079  -0.285  1.00  0.00     0.018 A 
ATOM      6  C   UNL     1       2.043   0.320  -0.157  1.00  0.00     0.083 A 
ENDROOT
BRANCH   1   7
ATOM      7  N   UNL     1      -0.112   0.133   1.095  1.00  0.00    -0.355 N 
ATOM      8  H   UNL     1      -0.447   0.403   2.047  1.00  0.00     0.167 HD
BRANCH   7   9
ATOM      9  C   UNL     1      -1.095  -0.203   0.094  1.00  0.00     0.043 A 
ATOM     10  C   UNL     1      -2.632   1.597   1.018  1.00  0.00     0.048 C 
ATOM     11  C   UNL     1      -2.341   0.475   0.049  1.00  0.00    -0.009 A 
ATOM     12  C   UNL     1      -3.317   0.066  -0.890  1.00  0.00     0.046 A 
ATOM     13  Cl  UNL     1      -4.918   0.799  -0.962  1.00  0.00    -0.084 Cl
ATOM     14  C   UNL     1      -3.032  -0.960  -1.796  1.00  0.00     0.021 A 
ATOM     15  C   UNL     1      -0.837  -1.233  -0.829  1.00  0.00     0.026 A 
ATOM     16  C   UNL     1      -1.797  -1.601  -1.770  1.00  0.00     0.004 A 
ENDBRANCH   7   9
ENDBRANCH   1   7
BRANCH   6  17
ATOM     17  C   UNL     1       1.478   1.259  -1.154  1.00  0.00     0.337 C 
ATOM     18  O   UNL     1       1.948   1.300  -2.323  1.00  0.00    -0.246 OA
BRANCH  17  19
ATOM     19  O   UNL     1       0.452   2.131  -0.802  1.00  0.00    -0.478 OA
ATOM     20  H   UNL     1       0.064   2.778  -1.478  1.00  0.00     0.297 HD
ENDBRANCH  17  19
ENDBRANCH   6  17
TORSDOF 4
