REMARK SMILES Cc1c(C(=O)Nc2ccc(N3C[C@@H](C)O[C@@H](C)C3)nc2)cccc1-c1ccc(OC(F)(F)F)cc1
REMARK SMILES IDX 3 1 21 2 22 3 23 4 24 5 2 6 1 7 4 8 6 9 5 11 7 12 10 13 9 14
REMARK SMILES IDX 19 15 8 16 20 17 11 18 16 19 17 20 18 21 15 22 13 23 12 24
REMARK SMILES IDX 14 25 25 26 26 27 35 28 27 29 34 30 28 31 29 32 30 33 31 34
REMARK SMILES IDX 32 35 33 36
REMARK H PARENT 6 10
REMARK Flexibility Score: inf
ROOT
ATOM      1  C   UNL     1       2.368   1.673  -0.652  1.00  0.00     0.043 A 
ATOM      2  C   UNL     1       2.580   3.031  -0.946  1.00  0.00     0.014 A 
ATOM      3  C   UNL     1       3.829   3.616  -0.755  1.00  0.00     0.001 A 
ATOM      4  C   UNL     1       4.895   2.852  -0.289  1.00  0.00     0.009 A 
ATOM      5  C   UNL     1       4.723   1.492  -0.002  1.00  0.00    -0.015 A 
ATOM      6  C   UNL     1       3.445   0.892  -0.149  1.00  0.00    -0.030 A 
ATOM      7  C   UNL     1       3.234  -0.559   0.229  1.00  0.00     0.046 C 
ENDROOT
BRANCH   1   8
ATOM      8  C   UNL     1       1.021   1.098  -0.882  1.00  0.00     0.255 C 
ATOM      9  N   UNL     1      -0.156   1.812  -0.467  1.00  0.00    -0.321 N 
ATOM     10  H   UNL     1      -0.066   2.817  -0.201  1.00  0.00     0.170 HD
ATOM     11  O   UNL     1       0.913  -0.005  -1.483  1.00  0.00    -0.269 OA
BRANCH   9  12
ATOM     12  C   UNL     1      -1.474   1.238  -0.444  1.00  0.00     0.060 A 
ATOM     13  C   UNL     1      -4.050   0.166  -0.292  1.00  0.00     0.128 A 
ATOM     14  C   UNL     1      -3.873   1.508  -0.669  1.00  0.00     0.049 A 
ATOM     15  N   UNL     1      -2.954  -0.596  -0.013  1.00  0.00    -0.237 NA
ATOM     16  C   UNL     1      -2.585   2.041  -0.729  1.00  0.00     0.031 A 
ATOM     17  C   UNL     1      -1.690  -0.100  -0.076  1.00  0.00     0.139 A 
BRANCH  13  18
ATOM     18  N   UNL     1      -5.365  -0.420  -0.225  1.00  0.00    -0.351 N 
ATOM     19  C   UNL     1      -7.803  -0.154  -0.159  1.00  0.00     0.135 C 
ATOM     20  C   UNL     1      -8.969   0.441   0.633  1.00  0.00     0.040 C 
ATOM     21  C   UNL     1      -6.462   0.273   0.461  1.00  0.00     0.149 C 
ATOM     22  O   UNL     1      -7.922  -1.568  -0.155  1.00  0.00    -0.372 OA
ATOM     23  C   UNL     1      -6.936  -2.146  -0.994  1.00  0.00     0.135 C 
ATOM     24  C   UNL     1      -5.526  -1.861  -0.446  1.00  0.00     0.149 C 
ATOM     25  C   UNL     1      -7.182  -3.653  -1.078  1.00  0.00     0.040 C 
ENDBRANCH  13  18
ENDBRANCH   9  12
ENDBRANCH   1   8
BRANCH   5  26
ATOM     26  C   UNL     1       5.898   0.723   0.451  1.00  0.00    -0.018 A 
ATOM     27  C   UNL     1       6.403   0.903   1.744  1.00  0.00     0.012 A 
ATOM     28  C   UNL     1       6.513  -0.198  -0.409  1.00  0.00     0.012 A 
ATOM     29  C   UNL     1       7.509   0.166   2.176  1.00  0.00     0.047 A 
ATOM     30  C   UNL     1       7.626  -0.929   0.019  1.00  0.00     0.047 A 
ATOM     31  C   UNL     1       8.133  -0.752   1.322  1.00  0.00     0.129 A 
BRANCH  31  32
ATOM     32  O   UNL     1       9.248  -1.456   1.806  1.00  0.00    -0.406 OA
BRANCH  32  33
ATOM     33  C   UNL     1      10.023  -2.394   1.056  1.00  0.00     0.573 C 
ATOM     34  F   UNL     1       9.238  -3.470   0.682  1.00  0.00    -0.132 F 
ATOM     35  F   UNL     1      11.060  -2.853   1.846  1.00  0.00    -0.132 F 
ATOM     36  F   UNL     1      10.556  -1.784  -0.067  1.00  0.00    -0.132 F 
ENDBRANCH  32  33
ENDBRANCH  31  32
ENDBRANCH   5  26
TORSDOF 6
