REMARK SMILES Cc1cc(Nc2ncc(Cl)c(=Nc3ccccc3S(=O)(=O)C(C)C)[nH]2)c(OC(C)C)cc1C1CCNCC1
REMARK SMILES IDX 6 1 7 2 8 3 9 4 10 5 11 6 25 7 12 8 5 10 4 12 26 13 31 14
REMARK SMILES IDX 3 15 32 16 2 17 1 18 27 19 28 20 29 21 30 22 33 23 34 24
REMARK SMILES IDX 38 25 35 26 37 27 36 28 13 30 14 31 18 32 15 33 17 34 16 35
REMARK SMILES IDX 19 36 20 37 21 38 22 39 23 40 24 41
REMARK H PARENT 25 9 5 11 36 29
REMARK Flexibility Score: inf
ROOT
ATOM      1  C   UNL     1       0.897   0.644  -0.971  1.00  0.00     0.206 A 
ATOM      2  N   UNL     1       0.577   1.901  -1.379  1.00  0.00    -0.221 NA
ATOM      3  C   UNL     1       1.538   2.790  -1.733  1.00  0.00     0.139 A 
ATOM      4  C   UNL     1       2.881   2.423  -1.685  1.00  0.00     0.102 A 
ATOM      5  Cl  UNL     1       4.114   3.584  -2.155  1.00  0.00    -0.079 Cl
ATOM      6  C   UNL     1       3.208   1.122  -1.279  1.00  0.00     0.153 A 
ATOM      7  N   UNL     1       2.206   0.270  -0.900  1.00  0.00    -0.309 N 
ATOM      8  N   UNL     1       4.463   0.765  -1.240  1.00  0.00    -0.228 NA
ATOM      9  H   UNL     1       2.421  -0.676  -0.514  1.00  0.00     0.171 HD
ENDROOT
BRANCH   1  10
ATOM     10  N   UNL     1      -0.128  -0.274  -0.553  1.00  0.00    -0.323 N 
ATOM     11  H   UNL     1       0.175  -1.137  -0.046  1.00  0.00     0.170 HD
BRANCH  10  12
ATOM     12  C   UNL     1      -1.541  -0.017  -0.654  1.00  0.00     0.084 A 
ATOM     13  C   UNL     1      -2.392  -0.416   0.391  1.00  0.00     0.143 A 
ATOM     14  C   UNL     1      -3.777  -0.205   0.266  1.00  0.00     0.053 A 
ATOM     15  C   UNL     1      -2.081   0.573  -1.805  1.00  0.00     0.033 A 
ATOM     16  C   UNL     1      -4.329   0.425  -0.865  1.00  0.00    -0.038 A 
ATOM     17  C   UNL     1      -3.462   0.808  -1.923  1.00  0.00    -0.045 A 
ATOM     18  C   UNL     1      -3.974   1.474  -3.173  1.00  0.00     0.045 C 
BRANCH  13  19
ATOM     19  O   UNL     1      -1.797  -1.011   1.524  1.00  0.00    -0.489 OA
BRANCH  19  20
ATOM     20  C   UNL     1      -2.366  -1.298   2.809  1.00  0.00     0.167 C 
ATOM     21  C   UNL     1      -2.983  -0.061   3.480  1.00  0.00     0.052 C 
ATOM     22  C   UNL     1      -3.308  -2.507   2.773  1.00  0.00     0.052 C 
ENDBRANCH  19  20
ENDBRANCH  13  19
BRANCH  16  23
ATOM     23  C   UNL     1      -5.838   0.671  -0.909  1.00  0.00     0.022 C 
ATOM     24  C   UNL     1      -6.301   1.600   0.241  1.00  0.00     0.023 C 
ATOM     25  C   UNL     1      -6.624  -0.655  -0.903  1.00  0.00     0.023 C 
ATOM     26  C   UNL     1      -7.787   1.407   0.583  1.00  0.00     0.081 C 
ATOM     27  C   UNL     1      -8.149  -0.411  -0.988  1.00  0.00     0.081 C 
ATOM     28  N   UNL     1      -8.535   0.958  -0.597  1.00  0.00    -0.317 NA
ATOM     29  H   UNL     1      -9.554   0.952  -0.358  1.00  0.00     0.122 HD
ENDBRANCH  16  23
ENDBRANCH  10  12
ENDBRANCH   1  10
BRANCH   8  30
ATOM     30  C   UNL     1       4.974  -0.548  -0.959  1.00  0.00     0.084 A 
ATOM     31  C   UNL     1       4.498  -1.648  -1.697  1.00  0.00     0.030 A 
ATOM     32  C   UNL     1       6.001  -0.741  -0.005  1.00  0.00     0.093 A 
ATOM     33  C   UNL     1       4.975  -2.933  -1.441  1.00  0.00     0.002 A 
ATOM     34  C   UNL     1       6.450  -2.047   0.256  1.00  0.00     0.022 A 
ATOM     35  C   UNL     1       5.943  -3.135  -0.459  1.00  0.00     0.001 A 
BRANCH  32  36
ATOM     36  S   UNL     1       6.708   0.600   0.924  1.00  0.00     0.182 S 
ATOM     37  O   UNL     1       6.149   1.917   0.461  1.00  0.00    -0.223 OA
ATOM     38  O   UNL     1       6.344   0.415   2.372  1.00  0.00    -0.223 OA
BRANCH  36  39
ATOM     39  C   UNL     1       8.500   0.706   0.739  1.00  0.00     0.107 C 
ATOM     40  C   UNL     1       9.235  -0.020   1.871  1.00  0.00     0.025 C 
ATOM     41  C   UNL     1       8.952   0.190  -0.630  1.00  0.00     0.025 C 
ENDBRANCH  36  39
ENDBRANCH  32  36
ENDBRANCH   8  30
TORSDOF 8
