REMARK SMILES CCOC(=O)C1=C(COCCN)NC(C)=C(C(=O)OC)[C@@H]1c1ccccc1Cl
REMARK SMILES IDX 8 1 7 2 6 3 21 4 13 5 16 6 14 7 15 9 4 10 5 11 3 12 2 13
REMARK SMILES IDX 1 14 22 15 23 16 27 17 24 18 26 19 28 20 25 21 17 22 18 23
REMARK SMILES IDX 19 24 20 25 9 26 10 27 11 28 12 29
REMARK H PARENT 13 8 12 30 12 31
REMARK Flexibility Score: inf
ROOT
ATOM      1  C   UNL     1       1.830   2.008  -0.930  1.00  0.00     0.214 C 
ENDROOT
BRANCH   1   2
ATOM      2  C   UNL     1       0.791   0.905  -0.988  1.00  0.00     0.053 C 
ATOM      3  C   UNL     1       0.248   0.337   0.112  1.00  0.00     0.071 C 
ATOM      4  C   UNL     1      -0.689  -0.855  -0.006  1.00  0.00     0.099 C 
ATOM      5  N   UNL     1       0.435   0.415  -2.286  1.00  0.00    -0.360 N 
ATOM      6  C   UNL     1      -1.002  -1.320  -1.423  1.00  0.00     0.068 C 
ATOM      7  C   UNL     1      -0.426  -0.713  -2.488  1.00  0.00     0.023 C 
ATOM      8  H   UNL     1       0.843   0.893  -3.122  1.00  0.00     0.166 HD
ATOM      9  C   UNL     1      -0.649  -1.181  -3.903  1.00  0.00     0.065 C 
BRANCH   3  10
ATOM     10  C   UNL     1       0.554   0.816   1.477  1.00  0.00     0.336 C 
ATOM     11  O   UNL     1       0.910  -0.010   2.362  1.00  0.00    -0.246 OA
BRANCH  10  12
ATOM     12  O   UNL     1       0.367   2.163   1.801  1.00  0.00    -0.463 OA
BRANCH  12  13
ATOM     13  C   UNL     1       0.604   2.680   3.105  1.00  0.00     0.230 C 
ATOM     14  C   UNL     1       0.313   4.172   3.120  1.00  0.00     0.049 C 
ENDBRANCH  12  13
ENDBRANCH  10  12
ENDBRANCH   3  10
BRANCH   4  15
ATOM     15  C   UNL     1      -1.978  -0.589   0.767  1.00  0.00    -0.017 A 
ATOM     16  C   UNL     1      -2.266  -1.377   1.899  1.00  0.00     0.006 A 
ATOM     17  C   UNL     1      -2.892   0.430   0.397  1.00  0.00     0.045 A 
ATOM     18  C   UNL     1      -3.431  -1.166   2.638  1.00  0.00     0.000 A 
ATOM     19  C   UNL     1      -4.056   0.631   1.149  1.00  0.00     0.021 A 
ATOM     20  Cl  UNL     1      -2.625   1.482  -0.989  1.00  0.00    -0.084 Cl
ATOM     21  C   UNL     1      -4.325  -0.164   2.264  1.00  0.00     0.002 A 
ENDBRANCH   4  15
BRANCH   6  22
ATOM     22  C   UNL     1      -1.907  -2.494  -1.561  1.00  0.00     0.336 C 
ATOM     23  O   UNL     1      -2.660  -2.618  -2.566  1.00  0.00    -0.246 OA
BRANCH  22  24
ATOM     24  O   UNL     1      -1.959  -3.439  -0.531  1.00  0.00    -0.466 OA
ATOM     25  C   UNL     1      -2.844  -4.552  -0.552  1.00  0.00     0.282 C 
ENDBRANCH  22  24
ENDBRANCH   6  22
ENDBRANCH   1   2
BRANCH   1  26
ATOM     26  O   UNL     1       3.010   1.604  -1.596  1.00  0.00    -0.374 OA
BRANCH  26  27
ATOM     27  C   UNL     1       3.836   0.863  -0.720  1.00  0.00     0.175 C 
BRANCH  27  28
ATOM     28  C   UNL     1       5.023   0.311  -1.502  1.00  0.00     0.106 C 
BRANCH  28  29
ATOM     29  N   UNL     1       5.912  -0.432  -0.615  1.00  0.00    -0.328 NA
ATOM     30  H   UNL     1       6.748  -0.722  -1.173  1.00  0.00     0.118 HD
ATOM     31  H   UNL     1       5.427  -1.314  -0.329  1.00  0.00     0.118 HD
ENDBRANCH  28  29
ENDBRANCH  27  28
ENDBRANCH  26  27
ENDBRANCH   1  26
TORSDOF 11
