REMARK SMILES C=CCN1CC[C@]23c4c5ccc(O)c4O[C@H]2[C@@H](OCCOCCOCCOCCOCCOCCOCCOC)CC[C@@]3(O)[C@H]1C5
REMARK SMILES IDX 27 1 28 2 29 3 30 4 31 5 32 6 33 7 34 8 35 9 36 10 37 11
REMARK SMILES IDX 38 12 39 13 40 14 26 15 25 16 24 17 23 18 22 19 21 20 20 21
REMARK SMILES IDX 19 22 18 23 17 24 41 25 16 26 42 27 7 28 15 29 43 30 8 31
REMARK SMILES IDX 6 32 14 33 45 34 9 35 5 36 12 37 46 38 4 39 10 40 11 41
REMARK SMILES IDX 44 42 13 44 3 46 2 47 1 48
REMARK H PARENT 44 43 13 45
REMARK Flexibility Score: inf
ROOT
ATOM      1  O   UNL     1       5.048  -3.476  -1.995  1.00  0.00    -0.377 OA
ENDROOT
BRANCH   1   2
ATOM      2  C   UNL     1       5.274  -2.184  -2.534  1.00  0.00     0.188 C 
BRANCH   2   3
ATOM      3  C   UNL     1       6.571  -2.185  -3.347  1.00  0.00     0.188 C 
BRANCH   3   4
ATOM      4  O   UNL     1       7.638  -2.735  -2.596  1.00  0.00    -0.377 OA
BRANCH   4   5
ATOM      5  C   UNL     1       8.304  -1.722  -1.865  1.00  0.00     0.188 C 
BRANCH   5   6
ATOM      6  C   UNL     1       9.253  -2.381  -0.867  1.00  0.00     0.188 C 
BRANCH   6   7
ATOM      7  O   UNL     1       9.928  -1.404  -0.098  1.00  0.00    -0.377 OA
BRANCH   7   8
ATOM      8  C   UNL     1       9.249  -1.179   1.122  1.00  0.00     0.188 C 
BRANCH   8   9
ATOM      9  C   UNL     1       9.981  -0.104   1.927  1.00  0.00     0.188 C 
BRANCH   9  10
ATOM     10  O   UNL     1       9.796   1.171   1.336  1.00  0.00    -0.377 OA
BRANCH  10  11
ATOM     11  C   UNL     1      10.934   1.545   0.586  1.00  0.00     0.188 C 
BRANCH  11  12
ATOM     12  C   UNL     1      10.739   2.952   0.044  1.00  0.00     0.188 C 
BRANCH  12  13
ATOM     13  O   UNL     1       9.576   3.000  -0.753  1.00  0.00    -0.382 OA
ATOM     14  C   UNL     1       9.388   4.314  -1.231  1.00  0.00     0.195 C 
ENDBRANCH  12  13
ENDBRANCH  11  12
ENDBRANCH  10  11
ENDBRANCH   9  10
ENDBRANCH   8   9
ENDBRANCH   7   8
ENDBRANCH   6   7
ENDBRANCH   5   6
ENDBRANCH   4   5
ENDBRANCH   3   4
ENDBRANCH   2   3
ENDBRANCH   1   2
BRANCH   1  15
ATOM     15  C   UNL     1       3.995  -3.446  -1.044  1.00  0.00     0.188 C 
BRANCH  15  16
ATOM     16  C   UNL     1       2.630  -3.619  -1.729  1.00  0.00     0.188 C 
BRANCH  16  17
ATOM     17  O   UNL     1       1.574  -3.592  -0.780  1.00  0.00    -0.377 OA
BRANCH  17  18
ATOM     18  C   UNL     1       1.161  -2.263  -0.529  1.00  0.00     0.188 C 
BRANCH  18  19
ATOM     19  C   UNL     1      -0.151  -2.278   0.282  1.00  0.00     0.188 C 
BRANCH  19  20
ATOM     20  O   UNL     1      -0.397  -1.067   0.987  1.00  0.00    -0.377 OA
BRANCH  20  21
ATOM     21  C   UNL     1      -0.533   0.063   0.139  1.00  0.00     0.188 C 
BRANCH  21  22
ATOM     22  C   UNL     1      -1.861   0.109  -0.637  1.00  0.00     0.189 C 
BRANCH  22  23
ATOM     23  O   UNL     1      -2.930   0.481   0.216  1.00  0.00    -0.372 OA
BRANCH  23  24
ATOM     24  C   UNL     1      -3.602  -0.645   0.767  1.00  0.00     0.160 C 
ATOM     25  C   UNL     1      -3.908  -0.311   2.234  1.00  0.00     0.039 C 
ATOM     26  C   UNL     1      -4.874  -1.015  -0.077  1.00  0.00     0.216 C 
ATOM     27  C   UNL     1      -4.999   0.766   2.354  1.00  0.00     0.041 C 
ATOM     28  C   UNL     1      -6.176  -0.232   0.331  1.00  0.00     0.070 C 
ATOM     29  O   UNL     1      -4.650  -0.590  -1.434  1.00  0.00    -0.482 OA
ATOM     30  C   UNL     1      -6.325   0.198   1.814  1.00  0.00     0.094 C 
ATOM     31  C   UNL     1      -6.041   0.944  -0.558  1.00  0.00     0.014 A 
ATOM     32  C   UNL     1      -7.467  -0.988  -0.096  1.00  0.00     0.034 C 
ATOM     33  C   UNL     1      -5.235   0.654  -1.611  1.00  0.00     0.165 A 
ATOM     34  C   UNL     1      -7.522   1.210   1.857  1.00  0.00     0.094 C 
ATOM     35  C   UNL     1      -6.606   2.193  -0.362  1.00  0.00    -0.038 A 
ATOM     36  C   UNL     1      -8.744  -0.140   0.155  1.00  0.00     0.086 C 
ATOM     37  C   UNL     1      -5.010   1.588  -2.624  1.00  0.00     0.158 A 
ATOM     38  C   UNL     1      -7.295   2.481   0.952  1.00  0.00     0.058 C 
ATOM     39  N   UNL     1      -8.757   0.443   1.519  1.00  0.00    -0.293 NA
ATOM     40  C   UNL     1      -6.405   3.163  -1.364  1.00  0.00     0.008 A 
ATOM     41  C   UNL     1      -5.628   2.852  -2.505  1.00  0.00     0.050 A 
BRANCH  30  42
ATOM     42  O   UNL     1      -6.662  -0.937   2.589  1.00  0.00    -0.387 OA
ATOM     43  H   UNL     1      -6.814  -0.634   3.533  1.00  0.00     0.211 HD
ENDBRANCH  30  42
BRANCH  37  44
ATOM     44  O   UNL     1      -4.180   1.310  -3.707  1.00  0.00    -0.504 OA
ATOM     45  H   UNL     1      -3.676   0.432  -3.774  1.00  0.00     0.293 HD
ENDBRANCH  37  44
BRANCH  39  46
ATOM     46  C   UNL     1     -10.031   1.131   1.817  1.00  0.00     0.111 C 
BRANCH  46  47
ATOM     47  C   UNL     1     -10.195   1.362   3.301  1.00  0.00    -0.019 C 
ATOM     48  C   UNL     1     -10.108   0.357   4.178  1.00  0.00     0.005 C 
ENDBRANCH  46  47
ENDBRANCH  39  46
ENDBRANCH  23  24
ENDBRANCH  22  23
ENDBRANCH  21  22
ENDBRANCH  20  21
ENDBRANCH  19  20
ENDBRANCH  18  19
ENDBRANCH  17  18
ENDBRANCH  16  17
ENDBRANCH  15  16
ENDBRANCH   1  15
TORSDOF 26
