REMARK SMILES C#C[C@]1(O)CC[C@H]2[C@@H]3CCC4=C(CCC(=O)C4)[C@H]3CC[C@@]21C
REMARK SMILES IDX 7 1 6 2 5 3 3 4 21 5 22 6 20 7 19 8 18 9 12 10 11 11 10 12
REMARK SMILES IDX 9 13 8 14 17 15 15 16 16 17 14 18 13 19 4 20 2 22 1 23
REMARK H PARENT 4 21
REMARK Flexibility Score: inf
ROOT
ATOM      1  C   UNL     1      -1.574  -0.156  -0.286  1.00  0.00     0.003 C 
ATOM      2  C   UNL     1      -3.006   0.122   0.159  1.00  0.00     0.008 C 
ATOM      3  C   UNL     1      -3.802  -1.109  -0.318  1.00  0.00     0.050 C 
ATOM      4  C   UNL     1      -2.767  -2.154  -0.837  1.00  0.00     0.130 C 
ATOM      5  C   UNL     1      -1.426  -1.685  -0.184  1.00  0.00     0.011 C 
ATOM      6  C   UNL     1      -1.373  -2.203   1.297  1.00  0.00     0.016 C 
ATOM      7  C   UNL     1      -0.111  -2.086  -0.906  1.00  0.00     0.012 C 
ATOM      8  C   UNL     1       1.111  -1.354  -0.297  1.00  0.00     0.009 C 
ATOM      9  C   UNL     1       0.928   0.192  -0.241  1.00  0.00     0.018 C 
ATOM     10  C   UNL     1       2.040   0.937   0.499  1.00  0.00    -0.067 C 
ATOM     11  C   UNL     1       1.873   2.268   0.701  1.00  0.00    -0.063 C 
ATOM     12  C   UNL     1       0.665   2.965   0.107  1.00  0.00     0.032 C 
ATOM     13  C   UNL     1      -0.640   2.161   0.303  1.00  0.00     0.009 C 
ATOM     14  C   UNL     1      -0.430   0.619   0.401  1.00  0.00     0.000 C 
ATOM     15  C   UNL     1       2.848   3.060   1.544  1.00  0.00     0.106 C 
ATOM     16  C   UNL     1       4.253   2.534   1.393  1.00  0.00     0.137 C 
ATOM     17  O   UNL     1       5.205   3.295   1.536  1.00  0.00    -0.299 OA
ATOM     18  C   UNL     1       4.501   1.088   1.046  1.00  0.00     0.080 C 
ATOM     19  C   UNL     1       3.223   0.242   1.151  1.00  0.00     0.039 C 
ENDROOT
BRANCH   4  20
ATOM     20  O   UNL     1      -3.106  -3.462  -0.423  1.00  0.00    -0.377 OA
ATOM     21  H   UNL     1      -4.025  -3.653  -0.750  1.00  0.00     0.212 HD
ENDBRANCH   4  20
BRANCH   4  22
ATOM     22  C   UNL     1      -2.716  -2.124  -2.322  1.00  0.00    -0.071 C 
ATOM     23  C   UNL     1      -2.671  -2.108  -3.525  1.00  0.00     0.007 C 
ENDBRANCH   4  22
TORSDOF 2
