REMARK SMILES O=C(NCCO[N+](=O)[O-])c1cccnc1
REMARK SMILES IDX 5 1 6 2 7 3 9 4 8 5 4 6 3 7 2 8 1 10 10 11 11 12 15 13 12 14
REMARK SMILES IDX 14 15 13 16
REMARK H PARENT 3 9
REMARK Flexibility Score: inf
ROOT
ATOM      1  C   UNL     1      -2.688   0.073  -0.236  1.00  0.00     0.229 C 
ENDROOT
BRANCH   1   2
ATOM      2  O   UNL     1      -4.056   0.096   0.154  1.00  0.00    -0.312 OA
BRANCH   2   3
ATOM      3  N   UNL     1      -4.991   0.849  -0.526  1.00  0.00     0.294 N 
ATOM      4  O   UNL     1      -4.630   1.611  -1.614  1.00  0.00    -0.109 OA
ATOM      5  O   UNL     1      -6.179   0.840  -0.149  1.00  0.00    -0.109 OA
ENDBRANCH   2   3
ENDBRANCH   1   2
BRANCH   1   6
ATOM      6  C   UNL     1      -1.907  -0.847   0.698  1.00  0.00     0.144 C 
BRANCH   6   7
ATOM      7  N   UNL     1      -0.506  -0.927   0.288  1.00  0.00    -0.350 N 
ATOM      8  C   UNL     1       0.441   0.117   0.575  1.00  0.00     0.252 C 
ATOM      9  H   UNL     1      -0.207  -1.773  -0.245  1.00  0.00     0.163 HD
ATOM     10  O   UNL     1       0.045   1.187   1.113  1.00  0.00    -0.269 OA
BRANCH   8  11
ATOM     11  C   UNL     1       1.877  -0.033   0.236  1.00  0.00     0.058 A 
ATOM     12  C   UNL     1       2.677   1.104   0.032  1.00  0.00     0.017 A 
ATOM     13  C   UNL     1       2.482  -1.299   0.133  1.00  0.00     0.124 A 
ATOM     14  C   UNL     1       4.029   0.965  -0.283  1.00  0.00     0.021 A 
ATOM     15  N   UNL     1       3.803  -1.406  -0.172  1.00  0.00    -0.264 NA
ATOM     16  C   UNL     1       4.580  -0.312  -0.385  1.00  0.00     0.111 A 
ENDBRANCH   8  11
ENDBRANCH   6   7
ENDBRANCH   1   6
TORSDOF 5
