REMARK SMILES CCOc1ccc(C[C@H]2NC(=O)CCSSC[C@@H](C(=O)N3CCC[C@H]3C(=O)N[C@@H](CCCN)C(=O)NCC(N)=O)NC(=O)[C@H](CC(N)=O)NC(=O)[C@H]([C@@H](C)O)NC(=O)[C@H]([C@@H](C)CC)NC2=O)cc1
REMARK SMILES IDX 17 1 18 2 41 3 42 4 43 5 44 7 49 8 50 9 51 10 52 12 56 13
REMARK SMILES IDX 57 14 58 16 53 18 54 19 55 20 45 22 46 23 47 24 48 25 19 28
REMARK SMILES IDX 20 29 21 30 22 31 25 32 23 33 24 34 26 35 27 36 28 37 29 39
REMARK SMILES IDX 30 40 31 41 32 42 33 43 34 46 35 47 36 48 37 50 38 51 39 52
REMARK SMILES IDX 40 53 16 56 15 57 14 58 13 59 11 60 10 61 12 62 9 64 65 65
REMARK SMILES IDX 64 66 66 67 59 69 60 71 61 72 62 73 63 74 8 75 7 76 6 77
REMARK SMILES IDX 67 78 5 79 68 80 4 81 3 82 2 83 1 84
REMARK H PARENT 41 6 49 11 56 15 55 21 47 26 47 27 28 38 33 44 33 45 36 49
REMARK H PARENT 39 54 39 55 10 63 64 68
REMARK Flexibility Score: 60.00
ROOT
ATOM      1  C   UNL     1       1.698   0.829  -0.596  1.00  0.00     0.116 C 
ENDROOT
BRANCH   1   2
ATOM      2  C   UNL     1       2.453  -0.399  -0.033  1.00  0.00     0.182 C 
BRANCH   2   3
ATOM      3  N   UNL     1       1.751  -1.012   1.098  1.00  0.00    -0.342 N 
ATOM      4  C   UNL     1       1.676  -2.433   1.242  1.00  0.00     0.243 C 
ATOM      5  O   UNL     1       2.398  -3.002   2.104  1.00  0.00    -0.273 OA
ATOM      6  H   UNL     1       1.702  -0.463   1.987  1.00  0.00     0.164 HD
BRANCH   4   7
ATOM      7  C   UNL     1       0.721  -3.256   0.418  1.00  0.00     0.180 C 
BRANCH   7   8
ATOM      8  N   UNL     1      -0.357  -2.420  -0.113  1.00  0.00    -0.342 N 
ATOM      9  C   UNL     1      -1.563  -2.216   0.629  1.00  0.00     0.245 C 
ATOM     10  O   UNL     1      -1.542  -1.495   1.664  1.00  0.00    -0.273 OA
ATOM     11  H   UNL     1      -0.159  -1.768  -0.908  1.00  0.00     0.164 HD
BRANCH   9  12
ATOM     12  C   UNL     1      -2.835  -2.914   0.228  1.00  0.00     0.200 C 
BRANCH  12  13
ATOM     13  N   UNL     1      -3.032  -2.759  -1.216  1.00  0.00    -0.340 N 
ATOM     14  C   UNL     1      -4.305  -2.522  -1.843  1.00  0.00     0.243 CG0
ATOM     15  H   UNL     1      -2.271  -3.118  -1.839  1.00  0.00     0.164 HD
ATOM     16  O   UNL     1      -4.514  -3.022  -2.983  1.00  0.00    -0.273 OA
ATOM     17  G   UNL     1      -5.347  -1.593  -1.246  1.00  0.00     0.000 G0
ENDBRANCH  12  13
BRANCH  12  18
ATOM     18  C   UNL     1      -2.774  -4.418   0.599  1.00  0.00     0.143 C 
ATOM     19  C   UNL     1      -2.788  -4.621   2.117  1.00  0.00     0.041 C 
BRANCH  18  20
ATOM     20  O   UNL     1      -3.868  -5.105   0.049  1.00  0.00    -0.391 OA
ATOM     21  H   UNL     1      -3.620  -5.357  -0.879  1.00  0.00     0.211 HD
ENDBRANCH  18  20
ENDBRANCH  12  18
ENDBRANCH   9  12
ENDBRANCH   7   8
BRANCH   7  22
ATOM     22  C   UNL     1       1.456  -3.985  -0.717  1.00  0.00     0.134 C 
BRANCH  22  23
ATOM     23  C   UNL     1       0.552  -4.950  -1.427  1.00  0.00     0.220 C 
ATOM     24  N   UNL     1       0.281  -6.233  -0.864  1.00  0.00    -0.370 N 
ATOM     25  O   UNL     1       0.014  -4.618  -2.514  1.00  0.00    -0.275 OA
ATOM     26  H   UNL     1      -0.400  -6.876  -1.325  1.00  0.00     0.159 HD
ATOM     27  H   UNL     1       0.717  -6.522   0.039  1.00  0.00     0.159 HD
ENDBRANCH  22  23
ENDBRANCH   7  22
ENDBRANCH   4   7
ENDBRANCH   2   3
BRANCH   2  28
ATOM     28  C   UNL     1       3.873  -0.081   0.381  1.00  0.00     0.246 C 
ATOM     29  O   UNL     1       4.098   0.953   1.068  1.00  0.00    -0.272 OA
BRANCH  28  30
ATOM     30  N   UNL     1       4.958  -0.992   0.103  1.00  0.00    -0.329 N 
ATOM     31  C   UNL     1       4.917  -2.020  -0.927  1.00  0.00     0.120 C 
ATOM     32  C   UNL     1       6.130  -1.122   0.964  1.00  0.00     0.174 C 
ATOM     33  C   UNL     1       6.237  -2.768  -0.818  1.00  0.00     0.024 C 
ATOM     34  C   UNL     1       6.750  -2.467   0.585  1.00  0.00     0.037 C 
BRANCH  32  35
ATOM     35  C   UNL     1       7.116  -0.007   0.729  1.00  0.00     0.243 C 
ATOM     36  O   UNL     1       7.107   0.623  -0.361  1.00  0.00    -0.273 OA
ATOM     37  N   UNL     1       8.113   0.267   1.725  1.00  0.00    -0.343 N 
ATOM     38  H   UNL     1       7.929  -0.072   2.695  1.00  0.00     0.164 HD
BRANCH  37  39
ATOM     39  C   UNL     1       9.463   0.761   1.431  1.00  0.00     0.171 C 
BRANCH  39  40
ATOM     40  C   UNL     1      10.158  -0.129   0.369  1.00  0.00     0.036 C 
BRANCH  40  41
ATOM     41  C   UNL     1      11.698  -0.054   0.383  1.00  0.00     0.018 C 
BRANCH  41  42
ATOM     42  C   UNL     1      12.274   1.196  -0.293  1.00  0.00     0.077 C 
BRANCH  42  43
ATOM     43  N   UNL     1      11.851   1.278  -1.690  1.00  0.00    -0.330 NA
ATOM     44  H   UNL     1      12.253   2.156  -2.090  1.00  0.00     0.118 HD
ATOM     45  H   UNL     1      12.290   0.486  -2.210  1.00  0.00     0.118 HD
ENDBRANCH  42  43
ENDBRANCH  41  42
ENDBRANCH  40  41
ENDBRANCH  39  40
BRANCH  39  46
ATOM     46  C   UNL     1       9.425   2.245   1.125  1.00  0.00     0.243 C 
ATOM     47  O   UNL     1       9.581   3.054   2.081  1.00  0.00    -0.273 OA
ATOM     48  N   UNL     1       9.170   2.751  -0.194  1.00  0.00    -0.345 N 
ATOM     49  H   UNL     1       9.073   2.102  -1.002  1.00  0.00     0.164 HD
BRANCH  48  50
ATOM     50  C   UNL     1       8.973   4.178  -0.452  1.00  0.00     0.215 C 
BRANCH  50  51
ATOM     51  C   UNL     1      10.271   4.925  -0.367  1.00  0.00     0.236 C 
ATOM     52  N   UNL     1      10.328   6.208   0.255  1.00  0.00    -0.368 N 
ATOM     53  O   UNL     1      11.311   4.440  -0.894  1.00  0.00    -0.273 OA
ATOM     54  H   UNL     1       9.506   6.598   0.766  1.00  0.00     0.159 HD
ATOM     55  H   UNL     1      11.201   6.781   0.187  1.00  0.00     0.159 HD
ENDBRANCH  50  51
ENDBRANCH  48  50
ENDBRANCH  39  46
ENDBRANCH  37  39
ENDBRANCH  32  35
ENDBRANCH  28  30
ENDBRANCH   2  28
ENDBRANCH   1   2
BRANCH   1  56
ATOM     56  S   UNL     1       0.709   1.745   0.646  1.00  0.00    -0.091 SA
BRANCH  56  57
ATOM     57  S   UNL     1      -0.299   2.920  -0.828  1.00  0.00    -0.094 SA
BRANCH  57  58
ATOM     58  C   UNL     1      -1.650   1.714  -1.109  1.00  0.00     0.091 C 
BRANCH  58  59
ATOM     59  C   UNL     1      -2.872   2.004  -0.231  1.00  0.00     0.112 C 
BRANCH  59  60
ATOM     60  C   UNL     1      -3.663   3.182  -0.747  1.00  0.00     0.221 C 
ATOM     61  N   UNL     1      -4.843   3.048  -1.568  1.00  0.00    -0.344 N 
ATOM     62  O   UNL     1      -3.236   4.340  -0.491  1.00  0.00    -0.275 OA
ATOM     63  H   UNL     1      -5.158   3.905  -2.075  1.00  0.00     0.164 HD
BRANCH  61  64
ATOM     64  C   UNL     1      -5.745   1.887  -1.618  1.00  0.00     0.175 C 
BRANCH  64  65
ATOM     65  C   UNL     1      -5.095   0.696  -2.287  1.00  0.00     0.243 C 
ATOM     66  N   UNL     1      -5.720  -0.589  -2.248  1.00  0.00    -0.342 N 
ATOM     67  O   UNL     1      -4.108   0.862  -3.052  1.00  0.00    -0.273 OA
ATOM     68  H   UNL     1      -6.238  -0.897  -3.102  1.00  0.00     0.164 HD
BRANCH  66  69
ATOM     69  C   UNL     1      -5.347  -1.593  -1.246  1.00  0.00     0.174 CG0
ATOM     70  G   UNL     1      -4.305  -2.522  -1.843  1.00  0.00     0.000 G0
BRANCH  69  71
ATOM     71  C   UNL     1      -6.637  -2.313  -0.728  1.00  0.00     0.018 C 
ATOM     72  C   UNL     1      -7.121  -3.443  -1.655  1.00  0.00     0.010 C 
BRANCH  71  73
ATOM     73  C   UNL     1      -6.474  -2.802   0.729  1.00  0.00     0.002 C 
ATOM     74  C   UNL     1      -7.805  -3.184   1.382  1.00  0.00     0.004 C 
ENDBRANCH  71  73
ENDBRANCH  69  71
ENDBRANCH  66  69
ENDBRANCH  64  65
BRANCH  64  75
ATOM     75  C   UNL     1      -6.343   1.590  -0.219  1.00  0.00     0.070 C 
BRANCH  75  76
ATOM     76  C   UNL     1      -7.485   2.521   0.091  1.00  0.00    -0.045 A 
ATOM     77  C   UNL     1      -8.783   2.202  -0.340  1.00  0.00     0.007 A 
ATOM     78  C   UNL     1      -7.262   3.734   0.757  1.00  0.00     0.007 A 
ATOM     79  C   UNL     1      -9.840   3.089  -0.114  1.00  0.00     0.047 A 
ATOM     80  C   UNL     1      -8.322   4.618   0.988  1.00  0.00     0.047 A 
ATOM     81  C   UNL     1      -9.619   4.303   0.541  1.00  0.00     0.119 A 
BRANCH  81  82
ATOM     82  O   UNL     1     -10.705   5.179   0.701  1.00  0.00    -0.494 OA
BRANCH  82  83
ATOM     83  C   UNL     1     -10.618   6.475   1.288  1.00  0.00     0.226 C 
ATOM     84  C   UNL     1     -11.948   7.194   1.137  1.00  0.00     0.049 C 
ENDBRANCH  82  83
ENDBRANCH  81  82
ENDBRANCH  75  76
ENDBRANCH  64  75
ENDBRANCH  61  64
ENDBRANCH  59  60
ENDBRANCH  58  59
ENDBRANCH  57  58
ENDBRANCH  56  57
ENDBRANCH   1  56
TORSDOF 21
