REMARK SMILES CCCCNc1ccc(C(=O)OCCN(C)C)cc1
REMARK SMILES IDX 6 1 7 2 8 3 9 4 18 5 19 6 5 7 4 9 3 10 2 11 1 12 10 13 11 14
REMARK SMILES IDX 12 15 13 16 14 17 15 18 16 19 17 20
REMARK H PARENT 5 8
REMARK Flexibility Score: inf
ROOT
ATOM      1  C   UNL     1      -2.173  -0.909  -0.654  1.00  0.00     0.034 A 
ATOM      2  C   UNL     1      -1.389  -1.729  -1.480  1.00  0.00     0.026 A 
ATOM      3  C   UNL     1      -0.001  -1.777  -1.325  1.00  0.00     0.018 A 
ATOM      4  C   UNL     1       0.634  -1.005  -0.337  1.00  0.00     0.060 A 
ATOM      5  C   UNL     1      -0.149  -0.184   0.491  1.00  0.00     0.018 A 
ATOM      6  C   UNL     1      -1.538  -0.135   0.335  1.00  0.00     0.026 A 
ENDROOT
BRANCH   1   7
ATOM      7  N   UNL     1      -3.601  -0.882  -0.840  1.00  0.00    -0.385 N 
ATOM      8  H   UNL     1      -4.009  -1.478  -1.596  1.00  0.00     0.160 HD
BRANCH   7   9
ATOM      9  C   UNL     1      -4.500  -0.060  -0.026  1.00  0.00     0.113 C 
BRANCH   9  10
ATOM     10  C   UNL     1      -5.960  -0.253  -0.460  1.00  0.00     0.021 C 
BRANCH  10  11
ATOM     11  C   UNL     1      -6.950   0.499   0.444  1.00  0.00    -0.002 C 
ATOM     12  C   UNL     1      -6.883   2.015   0.262  1.00  0.00     0.004 C 
ENDBRANCH  10  11
ENDBRANCH   9  10
ENDBRANCH   7   9
ENDBRANCH   1   7
BRANCH   4  13
ATOM     13  C   UNL     1       2.103  -1.052  -0.169  1.00  0.00     0.338 C 
ATOM     14  O   UNL     1       2.803  -1.790  -0.916  1.00  0.00    -0.246 OA
BRANCH  13  15
ATOM     15  O   UNL     1       2.715  -0.279   0.827  1.00  0.00    -0.461 OA
BRANCH  15  16
ATOM     16  C   UNL     1       4.127  -0.219   1.022  1.00  0.00     0.248 C 
BRANCH  16  17
ATOM     17  C   UNL     1       4.774   0.674  -0.055  1.00  0.00     0.125 C 
BRANCH  17  18
ATOM     18  N   UNL     1       6.242   0.816   0.070  1.00  0.00    -0.306 NA
ATOM     19  C   UNL     1       6.959  -0.456  -0.114  1.00  0.00     0.105 C 
ATOM     20  C   UNL     1       6.652   1.481   1.316  1.00  0.00     0.105 C 
ENDBRANCH  17  18
ENDBRANCH  16  17
ENDBRANCH  15  16
ENDBRANCH  13  15
ENDBRANCH   4  13
TORSDOF 9
