REMARK SMILES OC[C@H]1O[C@@H](c2ccc(Cl)c(Cc3ccc(O[C@H]4CCOC4)cc3)c2)[C@H](O)[C@@H](O)[C@@H]1O
REMARK SMILES IDX 6 1 7 2 8 3 9 4 10 5 11 6 25 7 5 8 3 9 4 10 30 11 28 12
REMARK SMILES IDX 26 13 2 14 1 15 31 17 29 19 27 21 12 23 13 24 14 25 24 26
REMARK SMILES IDX 15 27 23 28 16 29 17 30 18 31 19 32 22 33 20 34 21 35
REMARK H PARENT 1 16 31 18 29 20 27 22
REMARK Flexibility Score: inf
ROOT
ATOM      1  C   UNL     1      -2.316  -0.965  -0.537  1.00  0.00    -0.016 A 
ATOM      2  C   UNL     1      -1.927  -1.841  -1.566  1.00  0.00     0.008 A 
ATOM      3  C   UNL     1      -0.756  -1.617  -2.284  1.00  0.00     0.021 A 
ATOM      4  C   UNL     1       0.068  -0.527  -1.984  1.00  0.00     0.044 A 
ATOM      5  Cl  UNL     1       1.473  -0.276  -3.016  1.00  0.00    -0.084 Cl
ATOM      6  C   UNL     1      -0.276   0.351  -0.926  1.00  0.00    -0.025 A 
ATOM      7  C   UNL     1      -1.485   0.136  -0.234  1.00  0.00     0.012 A 
ENDROOT
BRANCH   1   8
ATOM      8  C   UNL     1      -3.692  -1.124   0.087  1.00  0.00     0.180 C 
ATOM      9  C   UNL     1      -5.897  -0.403  -0.152  1.00  0.00     0.176 C 
ATOM     10  O   UNL     1      -4.544  -0.141  -0.476  1.00  0.00    -0.362 OA
ATOM     11  C   UNL     1      -6.109  -0.268   1.385  1.00  0.00     0.177 C 
ATOM     12  C   UNL     1      -5.129  -1.173   2.166  1.00  0.00     0.177 C 
ATOM     13  C   UNL     1      -3.689  -0.999   1.631  1.00  0.00     0.179 C 
BRANCH   9  14
ATOM     14  C   UNL     1      -6.764   0.596  -0.940  1.00  0.00     0.191 C 
BRANCH  14  15
ATOM     15  O   UNL     1      -8.131   0.307  -0.807  1.00  0.00    -0.394 OA
ATOM     16  H   UNL     1      -8.314  -0.494  -1.369  1.00  0.00     0.210 HD
ENDBRANCH  14  15
ENDBRANCH   9  14
BRANCH  11  17
ATOM     17  O   UNL     1      -7.439  -0.555   1.754  1.00  0.00    -0.388 OA
ATOM     18  H   UNL     1      -7.659  -1.463   1.426  1.00  0.00     0.211 HD
ENDBRANCH  11  17
BRANCH  12  19
ATOM     19  O   UNL     1      -5.176  -0.826   3.527  1.00  0.00    -0.387 OA
ATOM     20  H   UNL     1      -4.946  -1.644   4.042  1.00  0.00     0.211 HD
ENDBRANCH  12  19
BRANCH  13  21
ATOM     21  O   UNL     1      -2.849  -1.983   2.174  1.00  0.00    -0.387 OA
ATOM     22  H   UNL     1      -2.586  -1.672   3.081  1.00  0.00     0.211 HD
ENDBRANCH  13  21
ENDBRANCH   1   8
BRANCH   6  23
ATOM     23  C   UNL     1       0.569   1.565  -0.576  1.00  0.00     0.072 C 
BRANCH  23  24
ATOM     24  C   UNL     1       1.963   1.207  -0.111  1.00  0.00    -0.043 A 
ATOM     25  C   UNL     1       3.074   1.887  -0.646  1.00  0.00     0.008 A 
ATOM     26  C   UNL     1       2.176   0.201   0.847  1.00  0.00     0.008 A 
ATOM     27  C   UNL     1       4.370   1.503  -0.296  1.00  0.00     0.047 A 
ATOM     28  C   UNL     1       3.474  -0.183   1.192  1.00  0.00     0.047 A 
ATOM     29  C   UNL     1       4.585   0.437   0.596  1.00  0.00     0.119 A 
BRANCH  29  30
ATOM     30  O   UNL     1       5.855  -0.059   0.941  1.00  0.00    -0.488 OA
BRANCH  30  31
ATOM     31  C   UNL     1       7.131   0.193   0.336  1.00  0.00     0.201 C 
ATOM     32  C   UNL     1       7.168   0.075  -1.170  1.00  0.00     0.076 C 
ATOM     33  C   UNL     1       7.667   1.587   0.636  1.00  0.00     0.205 C 
ATOM     34  C   UNL     1       7.889   1.349  -1.602  1.00  0.00     0.164 C 
ATOM     35  O   UNL     1       8.423   2.003  -0.473  1.00  0.00    -0.377 OA
ENDBRANCH  30  31
ENDBRANCH  29  30
ENDBRANCH  23  24
ENDBRANCH   6  23
TORSDOF 10
