REMARK SMILES O=c1[nH]c(=O)n(C2CCCO2)cc1F
REMARK SMILES IDX 7 1 8 2 9 3 10 4 11 5 6 6 14 7 13 8 12 9 2 10 3 11 1 12 4 13
REMARK SMILES IDX 5 15
REMARK H PARENT 3 14
REMARK Flexibility Score: inf
ROOT
ATOM      1  C   UNL     1      -0.650  -0.771  -0.284  1.00  0.00     0.223 C 
ATOM      2  C   UNL     1      -1.418  -0.465   0.992  1.00  0.00     0.058 C 
ATOM      3  C   UNL     1      -2.812  -0.253   0.493  1.00  0.00     0.033 C 
ATOM      4  C   UNL     1      -2.597   0.222  -0.930  1.00  0.00     0.163 C 
ATOM      5  O   UNL     1      -1.331  -0.202  -1.383  1.00  0.00    -0.358 OA
ENDROOT
BRANCH   1   6
ATOM      6  N   UNL     1       0.733  -0.257  -0.201  1.00  0.00    -0.271 N 
ATOM      7  F   UNL     1       2.516   2.881  -0.650  1.00  0.00    -0.199 F 
ATOM      8  C   UNL     1       2.274   1.575  -0.372  1.00  0.00     0.204 A 
ATOM      9  C   UNL     1       0.983   1.061  -0.471  1.00  0.00     0.138 A 
ATOM     10  C   UNL     1       3.302   0.725   0.024  1.00  0.00     0.289 A 
ATOM     11  N   UNL     1       3.029  -0.575   0.310  1.00  0.00    -0.271 N 
ATOM     12  O   UNL     1       4.480   1.160   0.122  1.00  0.00    -0.266 OA
ATOM     13  C   UNL     1       1.763  -1.068   0.211  1.00  0.00     0.330 A 
ATOM     14  H   UNL     1       3.805  -1.206   0.617  1.00  0.00     0.175 HD
ATOM     15  O   UNL     1       1.551  -2.276   0.507  1.00  0.00    -0.248 OA
ENDBRANCH   1   6
TORSDOF 1
