REMARK SMILES C[C@H](C(=O)O)c1cccc(C(=O)c2ccccc2)c1
REMARK SMILES IDX 6 1 19 2 10 3 9 4 8 5 7 6 2 7 1 8 3 9 4 10 5 11 11 13 12 14
REMARK SMILES IDX 13 15 14 16 18 17 15 18 17 19 16 20
REMARK H PARENT 5 12
REMARK Flexibility Score: inf
ROOT
ATOM      1  C   UNL     1       1.751   0.084  -0.008  1.00  0.00    -0.033 A 
ATOM      2  C   UNL     1       0.388   0.397  -0.157  1.00  0.00     0.016 A 
ATOM      3  C   UNL     1      -0.198   1.437   0.588  1.00  0.00     0.023 A 
ATOM      4  C   UNL     1       0.603   2.184   1.466  1.00  0.00     0.012 A 
ATOM      5  C   UNL     1       1.956   1.879   1.621  1.00  0.00     0.001 A 
ATOM      6  C   UNL     1       2.528   0.834   0.894  1.00  0.00     0.004 A 
ENDROOT
BRANCH   1   7
ATOM      7  C   UNL     1       2.360  -1.051  -0.806  1.00  0.00     0.126 C 
ATOM      8  C   UNL     1       2.817  -2.190   0.114  1.00  0.00     0.025 C 
BRANCH   7   9
ATOM      9  C   UNL     1       3.486  -0.550  -1.669  1.00  0.00     0.310 C 
ATOM     10  O   UNL     1       3.248  -0.165  -2.846  1.00  0.00    -0.252 OA
BRANCH   9  11
ATOM     11  O   UNL     1       4.781  -0.460  -1.164  1.00  0.00    -0.481 OA
ATOM     12  H   UNL     1       5.539  -0.106  -1.735  1.00  0.00     0.296 HD
ENDBRANCH   9  11
ENDBRANCH   7   9
ENDBRANCH   1   7
BRANCH   3  13
ATOM     13  C   UNL     1      -1.633   1.777   0.424  1.00  0.00     0.193 C 
ATOM     14  O   UNL     1      -1.988   2.983   0.535  1.00  0.00    -0.289 OA
BRANCH  13  15
ATOM     15  C   UNL     1      -2.664   0.751   0.135  1.00  0.00     0.022 A 
ATOM     16  C   UNL     1      -3.799   1.089  -0.624  1.00  0.00     0.012 A 
ATOM     17  C   UNL     1      -2.550  -0.556   0.647  1.00  0.00     0.012 A 
ATOM     18  C   UNL     1      -4.784   0.132  -0.889  1.00  0.00     0.001 A 
ATOM     19  C   UNL     1      -3.538  -1.508   0.380  1.00  0.00     0.001 A 
ATOM     20  C   UNL     1      -4.652  -1.166  -0.389  1.00  0.00     0.000 A 
ENDBRANCH  13  15
ENDBRANCH   3  13
TORSDOF 5
