REMARK SMILES Cc1ccc2c(c1)c1c3n2CCNC3CCC1
REMARK SMILES IDX 1 1 2 2 3 3 4 4 5 5 10 6 11 7 12 8 13 9 14 10 15 11 16 12
REMARK SMILES IDX 17 13 8 14 9 15 6 16 7 17
REMARK H PARENT 13 18
REMARK Flexibility Score: inf
ROOT
ATOM      1  C   UNL     1       4.864   0.445  -0.161  1.00  0.00     0.044 C 
ATOM      2  C   UNL     1       3.450  -0.049  -0.227  1.00  0.00    -0.050 A 
ATOM      3  C   UNL     1       3.186  -1.441  -0.278  1.00  0.00     0.005 A 
ATOM      4  C   UNL     1       1.866  -1.921  -0.361  1.00  0.00     0.027 A 
ATOM      5  C   UNL     1       0.834  -0.986  -0.429  1.00  0.00     0.049 A 
ATOM      6  N   UNL     1      -0.495  -1.218  -0.433  1.00  0.00    -0.342 N 
ATOM      7  C   UNL     1      -1.214  -2.465  -0.173  1.00  0.00     0.138 C 
ATOM      8  C   UNL     1      -2.744  -2.229  -0.228  1.00  0.00     0.103 C 
ATOM      9  N   UNL     1      -3.134  -0.971   0.443  1.00  0.00    -0.307 NA
ATOM     10  C   UNL     1      -2.542   0.194  -0.244  1.00  0.00     0.101 C 
ATOM     11  C   UNL     1      -2.805   1.511   0.519  1.00  0.00     0.026 C 
ATOM     12  C   UNL     1      -1.992   2.677  -0.096  1.00  0.00     0.007 C 
ATOM     13  C   UNL     1      -0.466   2.431  -0.028  1.00  0.00     0.038 C 
ATOM     14  C   UNL     1      -0.137   1.011  -0.386  1.00  0.00    -0.018 A 
ATOM     15  C   UNL     1      -1.071  -0.003  -0.394  1.00  0.00     0.039 A 
ATOM     16  C   UNL     1       1.088   0.370  -0.399  1.00  0.00     0.003 A 
ATOM     17  C   UNL     1       2.382   0.873  -0.289  1.00  0.00     0.014 A 
ATOM     18  H   UNL     1      -2.786  -1.006   1.432  1.00  0.00     0.123 HD
ENDROOT
TORSDOF 0
