REMARK SMILES C[C@H](N[C@@H](CCc1ccccc1)C(=O)O)C(=O)N1CCC[C@H]1C(=O)O
REMARK SMILES IDX 2 1 1 2 3 3 4 5 5 6 6 7 7 8 8 9 12 10 9 11 11 12 10 13 13 14
REMARK SMILES IDX 14 15 15 16 16 18 17 19 18 20 19 21 22 22 20 23 21 24 23 25
REMARK SMILES IDX 24 26 25 27
REMARK H PARENT 3 4 15 17 25 28
REMARK Flexibility Score: inf
ROOT
ATOM      1  C   UNL     1      -1.362  -0.569  -0.213  1.00  0.00     0.141 C 
ATOM      2  C   UNL     1      -1.875  -1.784  -0.996  1.00  0.00     0.035 C 
ENDROOT
BRANCH   1   3
ATOM      3  N   UNL     1      -0.143  -0.897   0.558  1.00  0.00    -0.293 NA
ATOM      4  H   UNL     1       0.063  -0.074   1.172  1.00  0.00     0.124 HD
BRANCH   3   5
ATOM      5  C   UNL     1       1.033  -1.181  -0.299  1.00  0.00     0.165 C 
BRANCH   5   6
ATOM      6  C   UNL     1       2.329  -0.614   0.330  1.00  0.00     0.036 C 
BRANCH   6   7
ATOM      7  C   UNL     1       3.554  -0.791  -0.580  1.00  0.00     0.038 C 
BRANCH   7   8
ATOM      8  C   UNL     1       4.769  -0.157   0.041  1.00  0.00    -0.048 A 
ATOM      9  C   UNL     1       5.074   1.191  -0.213  1.00  0.00     0.004 A 
ATOM     10  C   UNL     1       5.577  -0.890   0.926  1.00  0.00     0.004 A 
ATOM     11  C   UNL     1       6.185   1.788   0.392  1.00  0.00     0.000 A 
ATOM     12  C   UNL     1       6.687  -0.290   1.529  1.00  0.00     0.000 A 
ATOM     13  C   UNL     1       6.992   1.047   1.260  1.00  0.00     0.000 A 
ENDBRANCH   7   8
ENDBRANCH   6   7
ENDBRANCH   5   6
BRANCH   5  14
ATOM     14  C   UNL     1       1.161  -2.669  -0.480  1.00  0.00     0.320 C 
ATOM     15  O   UNL     1       1.103  -3.438   0.517  1.00  0.00    -0.251 OA
BRANCH  14  16
ATOM     16  O   UNL     1       1.374  -3.196  -1.750  1.00  0.00    -0.480 OA
ATOM     17  H   UNL     1       1.472  -4.195  -1.889  1.00  0.00     0.296 HD
ENDBRANCH  14  16
ENDBRANCH   5  14
ENDBRANCH   3   5
ENDBRANCH   1   3
BRANCH   1  18
ATOM     18  C   UNL     1      -2.455  -0.110   0.729  1.00  0.00     0.240 C 
ATOM     19  O   UNL     1      -2.562  -0.668   1.856  1.00  0.00    -0.273 OA
BRANCH  18  20
ATOM     20  N   UNL     1      -3.417   0.892   0.342  1.00  0.00    -0.328 N 
ATOM     21  C   UNL     1      -3.373   1.635  -0.908  1.00  0.00     0.120 C 
ATOM     22  C   UNL     1      -4.522   1.303   1.197  1.00  0.00     0.195 C 
ATOM     23  C   UNL     1      -4.621   2.508  -0.916  1.00  0.00     0.024 C 
ATOM     24  C   UNL     1      -5.105   2.549   0.531  1.00  0.00     0.039 C 
BRANCH  22  25
ATOM     25  C   UNL     1      -5.547   0.206   1.284  1.00  0.00     0.326 C 
ATOM     26  O   UNL     1      -6.078  -0.072   2.392  1.00  0.00    -0.250 OA
BRANCH  25  27
ATOM     27  O   UNL     1      -5.935  -0.481   0.137  1.00  0.00    -0.480 OA
ATOM     28  H   UNL     1      -6.631  -1.215   0.182  1.00  0.00     0.296 HD
ENDBRANCH  25  27
ENDBRANCH  22  25
ENDBRANCH  18  20
ENDBRANCH   1  18
TORSDOF 11
