REMARK SMILES N#Cc1c(N2C[C@@H]3NCCO[C@H]3C2)c(F)cc2c(=O)c(C(=O)O)cn(C3CC3)c12
REMARK SMILES IDX 4 1 14 2 15 3 16 4 17 5 18 6 19 7 20 8 24 9 25 10 29 11 3 12
REMARK SMILES IDX 5 13 7 14 6 15 12 16 8 17 13 18 11 19 9 20 10 22 2 23 1 24
REMARK SMILES IDX 26 25 27 26 28 27 21 28 22 29 23 30
REMARK H PARENT 8 21 23 31
REMARK Flexibility Score: inf
ROOT
ATOM      1  C   UNL     1      -0.282   0.683   0.350  1.00  0.00     0.093 A 
ATOM      2  C   UNL     1       0.032   2.029   0.522  1.00  0.00     0.148 A 
ATOM      3  F   UNL     1      -0.956   2.951   0.649  1.00  0.00    -0.205 F 
ATOM      4  C   UNL     1       1.357   2.432   0.614  1.00  0.00     0.056 A 
ATOM      5  C   UNL     1       2.404   1.501   0.479  1.00  0.00     0.051 A 
ATOM      6  C   UNL     1       3.740   1.916   0.632  1.00  0.00     0.204 A 
ATOM      7  O   UNL     1       4.000   3.127   0.882  1.00  0.00    -0.288 OA
ATOM      8  C   UNL     1       4.781   0.983   0.521  1.00  0.00     0.124 A 
ATOM      9  C   UNL     1       4.460  -0.334   0.171  1.00  0.00     0.106 A 
ATOM     10  N   UNL     1       3.170  -0.724  -0.073  1.00  0.00    -0.342 N 
ATOM     11  C   UNL     1       2.115   0.134   0.200  1.00  0.00     0.073 A 
ATOM     12  C   UNL     1       0.742  -0.279   0.224  1.00  0.00     0.103 A 
ENDROOT
BRANCH   1  13
ATOM     13  N   UNL     1      -1.659   0.289   0.325  1.00  0.00    -0.364 N 
ATOM     14  C   UNL     1      -3.797  -0.266  -0.414  1.00  0.00     0.104 C 
ATOM     15  C   UNL     1      -2.480   0.339  -0.878  1.00  0.00     0.138 C 
ATOM     16  C   UNL     1      -3.874   0.122   1.056  1.00  0.00     0.156 C 
ATOM     17  N   UNL     1      -5.010   0.176  -1.114  1.00  0.00    -0.308 NA
ATOM     18  C   UNL     1      -2.434  -0.001   1.528  1.00  0.00     0.150 C 
ATOM     19  O   UNL     1      -4.799  -0.690   1.752  1.00  0.00    -0.373 OA
ATOM     20  C   UNL     1      -6.205   0.032  -0.242  1.00  0.00     0.110 C 
ATOM     21  H   UNL     1      -4.917   1.187  -1.371  1.00  0.00     0.123 HD
ATOM     22  C   UNL     1      -5.983  -0.925   0.978  1.00  0.00     0.176 C 
ENDBRANCH   1  13
BRANCH  12  23
ATOM     23  C   UNL     1       0.337  -1.669   0.261  1.00  0.00     0.104 C 
ATOM     24  N   UNL     1       0.000  -2.776   0.298  1.00  0.00    -0.192 NA
ENDBRANCH  12  23
BRANCH  10  25
ATOM     25  C   UNL     1       2.993  -2.078  -0.634  1.00  0.00     0.087 C 
ATOM     26  C   UNL     1       3.823  -2.362  -1.888  1.00  0.00     0.027 C 
ATOM     27  C   UNL     1       2.337  -2.110  -2.013  1.00  0.00     0.027 C 
ENDBRANCH  10  25
BRANCH   8  28
ATOM     28  C   UNL     1       6.205   1.360   0.735  1.00  0.00     0.341 C 
ATOM     29  O   UNL     1       7.123   0.525   0.516  1.00  0.00    -0.246 OA
BRANCH  28  30
ATOM     30  O   UNL     1       6.548   2.633   1.183  1.00  0.00    -0.477 OA
ATOM     31  H   UNL     1       7.517   2.891   1.328  1.00  0.00     0.297 HD
ENDBRANCH  28  30
ENDBRANCH   8  28
TORSDOF 5
