REMARK SMILES O[C@@H]1CO[C@H]2[C@@H]1OC[C@@H]2O
REMARK SMILES IDX 9 1 8 2 7 3 6 4 2 5 3 6 4 7 5 8 10 9 1 11
REMARK H PARENT 10 10 1 12
REMARK Flexibility Score: inf
ROOT
ATOM      1  C   UNL     1       1.660  -0.440  -0.191  1.00  0.00     0.171 C 
ATOM      2  C   UNL     1       1.156  -0.426   1.242  1.00  0.00     0.195 C 
ATOM      3  O   UNL     1       0.219   0.615   1.386  1.00  0.00    -0.370 OA
ATOM      4  C   UNL     1      -0.245   0.965   0.095  1.00  0.00     0.181 C 
ATOM      5  C   UNL     1      -1.676   0.537  -0.131  1.00  0.00     0.171 C 
ATOM      6  C   UNL     1      -1.533  -0.798  -0.842  1.00  0.00     0.195 C 
ATOM      7  O   UNL     1      -0.305  -0.803  -1.532  1.00  0.00    -0.370 OA
ATOM      8  C   UNL     1       0.523   0.191  -0.958  1.00  0.00     0.181 C 
ENDROOT
BRANCH   1   9
ATOM      9  O   UNL     1       2.847   0.307  -0.324  1.00  0.00    -0.388 OA
ATOM     10  H   UNL     1       2.671   1.229   0.004  1.00  0.00     0.211 HD
ENDBRANCH   1   9
BRANCH   5  11
ATOM     11  O   UNL     1      -2.436   0.461   1.052  1.00  0.00    -0.388 OA
ATOM     12  H   UNL     1      -2.079  -0.279   1.610  1.00  0.00     0.211 HD
ENDBRANCH   5  11
TORSDOF 2
