REMARK SMILES CN1c2ccccc2C(NCCCCCCC(=O)O)c2ccc(Cl)cc2S1(=O)=O
REMARK SMILES IDX 13 1 12 2 11 3 10 4 9 6 1 7 2 8 3 9 27 10 4 11 8 12 26 13
REMARK SMILES IDX 28 14 29 15 5 16 7 17 20 18 25 19 6 20 21 21 23 22 22 23
REMARK SMILES IDX 24 24 14 25 15 26 16 27 17 28 18 29 19 30
REMARK H PARENT 10 5 19 31
REMARK Flexibility Score: inf
ROOT
ATOM      1  C   UNL     1       3.105   0.764   0.781  1.00  0.00     0.001 C 
ENDROOT
BRANCH   1   2
ATOM      2  C   UNL     1       1.941   0.978   1.769  1.00  0.00     0.015 C 
BRANCH   2   3
ATOM      3  C   UNL     1       0.896   1.995   1.278  1.00  0.00     0.082 C 
BRANCH   3   4
ATOM      4  N   UNL     1       0.282   1.586   0.004  1.00  0.00    -0.306 NA
ATOM      5  H   UNL     1       0.010   2.433  -0.541  1.00  0.00     0.123 HD
BRANCH   4   6
ATOM      6  C   UNL     1      -0.854   0.645   0.161  1.00  0.00     0.118 C 
ATOM      7  C   UNL     1      -4.384  -2.044  -0.566  1.00  0.00     0.164 C 
ATOM      8  N   UNL     1      -3.050  -1.576  -0.161  1.00  0.00    -0.269 N 
ATOM      9  C   UNL     1      -2.085  -1.229  -1.197  1.00  0.00     0.057 A 
ATOM     10  S   UNL     1      -2.808  -1.265   1.533  1.00  0.00     0.264 S 
ATOM     11  C   UNL     1      -2.107  -2.002  -2.381  1.00  0.00     0.027 A 
ATOM     12  C   UNL     1      -1.203  -0.087  -1.143  1.00  0.00    -0.002 A 
ATOM     13  C   UNL     1      -2.881   0.482   1.682  1.00  0.00     0.094 A 
ATOM     14  O   UNL     1      -1.503  -1.840   2.009  1.00  0.00    -0.201 OA
ATOM     15  O   UNL     1      -3.909  -1.901   2.338  1.00  0.00    -0.201 OA
ATOM     16  C   UNL     1      -1.372  -1.642  -3.504  1.00  0.00     0.002 A 
ATOM     17  C   UNL     1      -0.502   0.265  -2.325  1.00  0.00     0.008 A 
ATOM     18  C   UNL     1      -2.067   1.278   0.848  1.00  0.00    -0.006 A 
ATOM     19  C   UNL     1      -3.910   1.069   2.434  1.00  0.00     0.043 A 
ATOM     20  C   UNL     1      -0.593  -0.498  -3.484  1.00  0.00     0.001 A 
ATOM     21  C   UNL     1      -2.382   2.648   0.711  1.00  0.00     0.008 A 
ATOM     22  C   UNL     1      -4.161   2.438   2.338  1.00  0.00     0.042 A 
ATOM     23  C   UNL     1      -3.412   3.221   1.460  1.00  0.00     0.021 A 
ATOM     24  Cl  UNL     1      -5.456   3.163   3.274  1.00  0.00    -0.084 Cl
ENDBRANCH   4   6
ENDBRANCH   3   4
ENDBRANCH   2   3
ENDBRANCH   1   2
BRANCH   1  25
ATOM     25  C   UNL     1       2.836  -0.385  -0.208  1.00  0.00     0.001 C 
BRANCH  25  26
ATOM     26  C   UNL     1       4.025  -0.637  -1.157  1.00  0.00     0.012 C 
BRANCH  26  27
ATOM     27  C   UNL     1       4.975  -1.744  -0.672  1.00  0.00     0.122 C 
BRANCH  27  28
ATOM     28  C   UNL     1       5.750  -1.337   0.542  1.00  0.00     0.303 C 
ATOM     29  O   UNL     1       6.708  -0.526   0.436  1.00  0.00    -0.252 OA
BRANCH  28  30
ATOM     30  O   UNL     1       5.394  -1.836   1.791  1.00  0.00    -0.481 OA
ATOM     31  H   UNL     1       5.900  -1.560   2.624  1.00  0.00     0.296 HD
ENDBRANCH  28  30
ENDBRANCH  27  28
ENDBRANCH  26  27
ENDBRANCH  25  26
ENDBRANCH   1  25
TORSDOF 9
