REMARK SMILES C=CC(=O)N1CCC[C@@H](n2nc(-c3ccc(Oc4ccccc4)cc3)c3c(N)ncnc32)C1
REMARK SMILES IDX 27 1 29 2 30 3 31 4 32 5 26 6 12 7 11 8 10 9 28 10 13 13
REMARK SMILES IDX 14 14 25 15 15 16 24 17 16 18 17 19 18 20 19 21 23 22 20 23
REMARK SMILES IDX 22 24 21 25 9 26 8 27 33 28 7 29 5 30 6 31 3 32 4 33 2 34
REMARK SMILES IDX 1 35
REMARK H PARENT 28 11 28 12
REMARK Flexibility Score: inf
ROOT
ATOM      1  C   UNL     1      -0.015   4.089   0.266  1.00  0.00     0.138 A 
ATOM      2  N   UNL     1      -0.728   5.230   0.014  1.00  0.00    -0.219 NA
ATOM      3  C   UNL     1      -2.095   5.217  -0.088  1.00  0.00     0.226 A 
ATOM      4  N   UNL     1      -2.783   4.051   0.064  1.00  0.00    -0.217 NA
ATOM      5  C   UNL     1      -2.081   2.914   0.321  1.00  0.00     0.164 A 
ATOM      6  C   UNL     1      -0.726   2.899   0.403  1.00  0.00     0.089 A 
ATOM      7  C   UNL     1      -0.408   1.568   0.626  1.00  0.00     0.106 A 
ATOM      8  N   UNL     1      -1.551   0.848   0.688  1.00  0.00    -0.170 NA
ATOM      9  N   UNL     1      -2.575   1.680   0.512  1.00  0.00    -0.242 N 
ENDROOT
BRANCH   1  10
ATOM     10  N   UNL     1       1.404   4.148   0.390  1.00  0.00    -0.383 N 
ATOM     11  H   UNL     1       1.933   4.897  -0.117  1.00  0.00     0.158 HD
ATOM     12  H   UNL     1       1.941   3.412   0.896  1.00  0.00     0.158 HD
ENDBRANCH   1  10
BRANCH   7  13
ATOM     13  C   UNL     1       0.925   0.957   0.664  1.00  0.00     0.003 A 
ATOM     14  C   UNL     1       1.712   0.916  -0.495  1.00  0.00     0.014 A 
ATOM     15  C   UNL     1       1.392   0.360   1.843  1.00  0.00     0.014 A 
ATOM     16  C   UNL     1       2.956   0.280  -0.477  1.00  0.00     0.048 A 
ATOM     17  C   UNL     1       2.643  -0.265   1.861  1.00  0.00     0.048 A 
ATOM     18  C   UNL     1       3.423  -0.330   0.699  1.00  0.00     0.127 A 
BRANCH  18  19
ATOM     19  O   UNL     1       4.666  -0.977   0.751  1.00  0.00    -0.457 OA
BRANCH  19  20
ATOM     20  C   UNL     1       5.270  -1.658  -0.319  1.00  0.00     0.127 A 
ATOM     21  C   UNL     1       6.671  -1.682  -0.408  1.00  0.00     0.047 A 
ATOM     22  C   UNL     1       4.509  -2.343  -1.285  1.00  0.00     0.047 A 
ATOM     23  C   UNL     1       7.300  -2.339  -1.473  1.00  0.00     0.004 A 
ATOM     24  C   UNL     1       5.138  -2.992  -2.350  1.00  0.00     0.004 A 
ATOM     25  C   UNL     1       6.533  -2.983  -2.446  1.00  0.00     0.000 A 
ENDBRANCH  19  20
ENDBRANCH  18  19
ENDBRANCH   7  13
BRANCH   9  26
ATOM     26  C   UNL     1      -3.992   1.300   0.613  1.00  0.00     0.129 C 
ATOM     27  C   UNL     1      -4.313   0.633   1.968  1.00  0.00     0.031 C 
ATOM     28  C   UNL     1      -4.407   0.408  -0.568  1.00  0.00     0.147 C 
ATOM     29  C   UNL     1      -3.842  -0.828   2.055  1.00  0.00     0.024 C 
ATOM     30  N   UNL     1      -3.899  -0.958  -0.387  1.00  0.00    -0.337 N 
ATOM     31  C   UNL     1      -4.310  -1.643   0.846  1.00  0.00     0.120 C 
BRANCH  30  32
ATOM     32  C   UNL     1      -3.126  -1.598  -1.432  1.00  0.00     0.246 C 
ATOM     33  O   UNL     1      -2.628  -0.912  -2.362  1.00  0.00    -0.270 OA
BRANCH  32  34
ATOM     34  C   UNL     1      -2.929  -3.054  -1.490  1.00  0.00     0.063 C 
ATOM     35  C   UNL     1      -2.097  -3.687  -0.666  1.00  0.00     0.014 C 
ENDBRANCH  32  34
ENDBRANCH  30  32
ENDBRANCH   9  26
TORSDOF 7
