REMARK SMILES CC(C)(C)C(O)/C=C/c1ccc2c(c1)OCO2
REMARK SMILES IDX 7 1 8 2 5 3 2 4 1 5 3 6 4 7 6 8 9 10 14 11 10 12 13 13 11 14
REMARK SMILES IDX 12 15 15 16 17 17 16 18
REMARK H PARENT 6 9
REMARK Flexibility Score: inf
ROOT
ATOM      1  C   UNL     1       0.502   1.009  -0.068  1.00  0.00     0.005 C 
ATOM      2  C   UNL     1      -0.094   0.093   0.710  1.00  0.00     0.006 C 
ENDROOT
BRANCH   1   3
ATOM      3  C   UNL     1       1.950   1.425   0.098  1.00  0.00     0.142 C 
BRANCH   3   4
ATOM      4  C   UNL     1       2.992   0.448  -0.557  1.00  0.00    -0.009 C 
ATOM      5  C   UNL     1       2.911  -0.990   0.007  1.00  0.00     0.014 C 
ATOM      6  C   UNL     1       2.751   0.385  -2.083  1.00  0.00     0.014 C 
ATOM      7  C   UNL     1       4.417   0.990  -0.317  1.00  0.00     0.014 C 
ENDBRANCH   3   4
BRANCH   3   8
ATOM      8  O   UNL     1       2.245   1.733   1.440  1.00  0.00    -0.388 OA
ATOM      9  H   UNL     1       2.274   0.892   1.959  1.00  0.00     0.211 HD
ENDBRANCH   3   8
ENDBRANCH   1   3
BRANCH   2  10
ATOM     10  C   UNL     1      -1.507  -0.330   0.549  1.00  0.00    -0.022 A 
ATOM     11  C   UNL     1      -2.473   0.478  -0.104  1.00  0.00     0.058 A 
ATOM     12  C   UNL     1      -1.906  -1.577   1.098  1.00  0.00     0.012 A 
ATOM     13  C   UNL     1      -3.776  -0.002  -0.195  1.00  0.00     0.166 A 
ATOM     14  C   UNL     1      -3.234  -2.023   0.982  1.00  0.00     0.051 A 
ATOM     15  C   UNL     1      -4.141  -1.200   0.324  1.00  0.00     0.165 A 
ATOM     16  O   UNL     1      -4.875   0.600  -0.778  1.00  0.00    -0.454 OA
ATOM     17  O   UNL     1      -5.485  -1.414   0.090  1.00  0.00    -0.454 OA
ATOM     18  C   UNL     1      -5.998  -0.278  -0.618  1.00  0.00     0.468 C 
ENDBRANCH   2  10
TORSDOF 4
