REMARK SMILES C=CC(=O)Nc1cc(Nc2nccc(-c3cn(C)c4ccccc34)n2)c(OC)cc1N(C)CCN(C)C
REMARK SMILES IDX 26 1 8 2 7 3 6 4 30 5 29 6 27 7 28 8 9 9 10 11 11 12 25 13
REMARK SMILES IDX 12 14 14 15 13 16 15 17 16 18 24 19 17 20 19 21 23 22 18 23
REMARK SMILES IDX 20 24 22 25 21 26 31 27 32 28 33 29 34 30 35 31 36 32 37 33
REMARK SMILES IDX 5 34 3 35 4 37 2 38 1 39
REMARK H PARENT 9 10 5 36
REMARK Flexibility Score: inf
ROOT
ATOM      1  C   UNL     1      -1.298   1.601  -0.369  1.00  0.00     0.144 A 
ATOM      2  C   UNL     1      -0.241   0.675  -0.413  1.00  0.00     0.086 A 
ATOM      3  C   UNL     1      -0.525  -0.694  -0.547  1.00  0.00     0.058 A 
ATOM      4  C   UNL     1      -1.845  -1.154  -0.592  1.00  0.00     0.067 A 
ATOM      5  C   UNL     1      -2.908  -0.226  -0.576  1.00  0.00     0.064 A 
ATOM      6  C   UNL     1      -2.625   1.142  -0.448  1.00  0.00     0.076 A 
ENDROOT
BRANCH   1   7
ATOM      7  O   UNL     1      -0.994   2.967  -0.247  1.00  0.00    -0.494 OA
ATOM      8  C   UNL     1      -1.963   4.010  -0.209  1.00  0.00     0.278 C 
ENDBRANCH   1   7
BRANCH   2   9
ATOM      9  N   UNL     1       1.119   1.145  -0.386  1.00  0.00    -0.321 N 
ATOM     10  H   UNL     1       1.335   2.065  -0.832  1.00  0.00     0.170 HD
BRANCH   9  11
ATOM     11  C   UNL     1       2.197   0.454   0.264  1.00  0.00     0.227 A 
ATOM     12  N   UNL     1       1.949  -0.536   1.163  1.00  0.00    -0.221 NA
ATOM     13  N   UNL     1       3.480   0.824   0.009  1.00  0.00    -0.213 NA
ATOM     14  C   UNL     1       2.965  -1.174   1.799  1.00  0.00     0.117 A 
ATOM     15  C   UNL     1       4.532   0.202   0.606  1.00  0.00     0.078 A 
ATOM     16  C   UNL     1       4.287  -0.816   1.536  1.00  0.00     0.049 A 
BRANCH  15  17
ATOM     17  C   UNL     1       5.901   0.653   0.295  1.00  0.00     0.026 A 
ATOM     18  C   UNL     1       6.268   1.962  -0.007  1.00  0.00     0.096 A 
ATOM     19  C   UNL     1       7.062  -0.099   0.179  1.00  0.00     0.009 A 
ATOM     20  N   UNL     1       7.595   2.032  -0.262  1.00  0.00    -0.350 N 
ATOM     21  C   UNL     1       8.070   0.774  -0.159  1.00  0.00     0.048 A 
ATOM     22  C   UNL     1       7.289  -1.476   0.261  1.00  0.00     0.011 A 
ATOM     23  C   UNL     1       8.326   3.221  -0.688  1.00  0.00     0.149 C 
ATOM     24  C   UNL     1       9.373   0.330  -0.402  1.00  0.00     0.027 A 
ATOM     25  C   UNL     1       8.594  -1.945   0.032  1.00  0.00     0.001 A 
ATOM     26  C   UNL     1       9.631  -1.047  -0.295  1.00  0.00     0.002 A 
ENDBRANCH  15  17
ENDBRANCH   9  11
ENDBRANCH   2   9
BRANCH   5  27
ATOM     27  N   UNL     1      -4.273  -0.657  -0.749  1.00  0.00    -0.372 N 
ATOM     28  C   UNL     1      -4.675  -1.333  -1.986  1.00  0.00     0.143 C 
BRANCH  27  29
ATOM     29  C   UNL     1      -5.289  -0.316   0.256  1.00  0.00     0.131 C 
BRANCH  29  30
ATOM     30  C   UNL     1      -6.282   0.734  -0.291  1.00  0.00     0.105 C 
BRANCH  30  31
ATOM     31  N   UNL     1      -7.202   1.290   0.727  1.00  0.00    -0.308 NA
ATOM     32  C   UNL     1      -6.517   2.130   1.723  1.00  0.00     0.105 C 
ATOM     33  C   UNL     1      -8.028   0.260   1.375  1.00  0.00     0.105 C 
ENDBRANCH  30  31
ENDBRANCH  29  30
ENDBRANCH  27  29
ENDBRANCH   5  27
BRANCH   4  34
ATOM     34  N   UNL     1      -2.085  -2.567  -0.674  1.00  0.00    -0.321 N 
ATOM     35  C   UNL     1      -2.947  -3.261   0.238  1.00  0.00     0.247 C 
ATOM     36  H   UNL     1      -1.507  -3.128  -1.340  1.00  0.00     0.170 HD
ATOM     37  O   UNL     1      -3.368  -2.679   1.276  1.00  0.00    -0.270 OA
BRANCH  35  38
ATOM     38  C   UNL     1      -3.322  -4.659  -0.036  1.00  0.00     0.064 C 
ATOM     39  C   UNL     1      -4.119  -5.357   0.773  1.00  0.00     0.014 C 
ENDBRANCH  35  38
ENDBRANCH   4  34
TORSDOF 10
