REMARK SMILES COc1cc2nccc(Oc3ccc(NC(=O)NC4CC4)c(Cl)c3)c2cc1C(N)=O
REMARK SMILES IDX 11 1 12 2 13 3 14 4 22 5 23 6 24 7 10 8 9 9 3 10 27 11 4 12
REMARK SMILES IDX 26 13 5 14 25 15 6 16 7 17 8 18 2 19 1 20 28 21 29 22 30 23
REMARK SMILES IDX 15 26 16 27 17 29 18 30 19 32 20 33 21 34
REMARK H PARENT 29 24 29 25 15 28 18 31
REMARK Flexibility Score: inf
ROOT
ATOM      1  C   UNL     1       0.397  -0.435   0.377  1.00  0.00     0.129 A 
ATOM      2  C   UNL     1       1.388  -0.026   1.272  1.00  0.00     0.049 A 
ATOM      3  C   UNL     1       2.739  -0.186   0.955  1.00  0.00     0.031 A 
ATOM      4  C   UNL     1       3.122  -0.738  -0.280  1.00  0.00     0.061 A 
ATOM      5  C   UNL     1       2.123  -1.148  -1.186  1.00  0.00     0.068 A 
ATOM      6  Cl  UNL     1       2.535  -1.825  -2.756  1.00  0.00    -0.082 Cl
ATOM      7  C   UNL     1       0.772  -0.985  -0.861  1.00  0.00     0.069 A 
ENDROOT
BRANCH   1   8
ATOM      8  O   UNL     1      -0.948  -0.241   0.725  1.00  0.00    -0.457 OA
BRANCH   8   9
ATOM      9  C   UNL     1      -2.023  -1.030   0.286  1.00  0.00     0.138 A 
ATOM     10  C   UNL     1      -5.830   0.688  -0.398  1.00  0.00     0.133 A 
ATOM     11  C   UNL     1      -4.765   1.501   0.050  1.00  0.00     0.082 A 
ATOM     12  C   UNL     1      -5.616  -0.692  -0.578  1.00  0.00     0.076 A 
ATOM     13  C   UNL     1      -3.498   0.933   0.268  1.00  0.00     0.032 A 
ATOM     14  C   UNL     1      -4.359  -1.255  -0.345  1.00  0.00     0.078 A 
ATOM     15  C   UNL     1      -3.286  -0.442   0.077  1.00  0.00     0.044 A 
ATOM     16  N   UNL     1      -4.171  -2.589  -0.532  1.00  0.00    -0.256 NA
ATOM     17  C   UNL     1      -2.965  -3.178  -0.322  1.00  0.00     0.115 A 
ATOM     18  C   UNL     1      -1.875  -2.414   0.094  1.00  0.00     0.068 A 
BRANCH  10  19
ATOM     19  O   UNL     1      -7.072   1.280  -0.683  1.00  0.00    -0.496 OA
ATOM     20  C   UNL     1      -8.220   0.576  -1.144  1.00  0.00     0.278 C 
ENDBRANCH  10  19
BRANCH  11  21
ATOM     21  C   UNL     1      -4.944   2.956   0.267  1.00  0.00     0.252 C 
ATOM     22  N   UNL     1      -6.138   3.476   0.856  1.00  0.00    -0.365 N 
ATOM     23  O   UNL     1      -4.017   3.751  -0.043  1.00  0.00    -0.269 OA
ATOM     24  H   UNL     1      -6.275   4.508   0.937  1.00  0.00     0.159 HD
ATOM     25  H   UNL     1      -6.847   2.844   1.289  1.00  0.00     0.159 HD
ENDBRANCH  11  21
ENDBRANCH   8   9
ENDBRANCH   1   8
BRANCH   4  26
ATOM     26  N   UNL     1       4.512  -0.930  -0.597  1.00  0.00    -0.307 N 
ATOM     27  C   UNL     1       5.541   0.016  -0.273  1.00  0.00     0.319 C 
ATOM     28  H   UNL     1       4.787  -1.776  -1.144  1.00  0.00     0.171 HD
ATOM     29  O   UNL     1       5.241   1.165   0.153  1.00  0.00    -0.248 OA
ATOM     30  N   UNL     1       6.916  -0.336  -0.469  1.00  0.00    -0.335 N 
ATOM     31  H   UNL     1       7.148  -1.262  -0.893  1.00  0.00     0.165 HD
BRANCH  30  32
ATOM     32  C   UNL     1       7.993   0.618  -0.221  1.00  0.00     0.084 C 
ATOM     33  C   UNL     1       9.252  -0.009   0.353  1.00  0.00     0.027 C 
ATOM     34  C   UNL     1       8.320   0.786   1.254  1.00  0.00     0.027 C 
ENDBRANCH  30  32
ENDBRANCH   4  26
TORSDOF 6
