REMARK SMILES CC(=O)[O-].CC(=O)[O-].O.O.O.O.[Mg+2]
REMARK SMILES IDX 9 1
REMARK H PARENT 9 2 9 3
REMARK Flexibility Score: inf
ROOT
ATOM      1  O   UNL     1      -0.007   0.404   0.000  1.00  0.00    -0.412 OA
ATOM      2  H   UNL     1      -0.779  -0.216   0.000  1.00  0.00     0.206 HD
ATOM      3  H   UNL     1       0.787  -0.188   0.000  1.00  0.00     0.206 HD
ENDROOT
TORSDOF 0
