REMARK SMILES CC(=O)c1c(C)c2cnc(Nc3ccc(N4CCNCC4)cn3)nc2n(C2CCCC2)c1=O
REMARK SMILES IDX 11 1 10 3 4 4 5 5 32 6 6 7 7 8 26 9 33 10 8 11 25 12 9 13
REMARK SMILES IDX 24 14 2 15 1 16 3 17 27 18 28 19 31 20 29 21 30 22 12 23
REMARK SMILES IDX 23 24 13 25 22 26 14 27 15 28 16 29 17 30 21 31 18 32 20 33
REMARK SMILES IDX 19 34
REMARK H PARENT 11 2 19 35
REMARK Flexibility Score: inf
ROOT
ATOM      1  N   UNL     1       0.651  -1.235   0.928  1.00  0.00    -0.309 N 
ATOM      2  H   UNL     1       0.692  -2.271   0.808  1.00  0.00     0.171 HD
ENDROOT
BRANCH   1   3
ATOM      3  C   UNL     1      -0.611  -0.588   0.748  1.00  0.00     0.230 A 
ATOM      4  C   UNL     1      -5.308   0.547  -0.521  1.00  0.00     0.086 A 
ATOM      5  C   UNL     1      -4.228   1.340  -0.058  1.00  0.00    -0.022 A 
ATOM      6  C   UNL     1      -5.083  -0.801  -0.865  1.00  0.00     0.263 A 
ATOM      7  C   UNL     1      -4.377   2.830   0.145  1.00  0.00     0.046 C 
ATOM      8  C   UNL     1      -3.000   0.706   0.213  1.00  0.00     0.040 A 
ATOM      9  N   UNL     1      -3.831  -1.369  -0.743  1.00  0.00    -0.289 N 
ATOM     10  O   UNL     1      -6.055  -1.485  -1.291  1.00  0.00    -0.268 OA
ATOM     11  C   UNL     1      -1.901   1.387   0.787  1.00  0.00     0.127 A 
ATOM     12  C   UNL     1      -2.835  -0.669  -0.100  1.00  0.00     0.148 A 
ATOM     13  N   UNL     1      -0.754   0.728   1.052  1.00  0.00    -0.221 NA
ATOM     14  N   UNL     1      -1.630  -1.252   0.166  1.00  0.00    -0.194 NA
BRANCH   4  15
ATOM     15  C   UNL     1      -6.684   1.105  -0.650  1.00  0.00     0.165 C 
ATOM     16  C   UNL     1      -7.384   1.713   0.524  1.00  0.00     0.094 C 
ATOM     17  O   UNL     1      -7.265   1.071  -1.768  1.00  0.00    -0.294 OA
ENDBRANCH   4  15
BRANCH   9  18
ATOM     18  C   UNL     1      -3.638  -2.774  -1.219  1.00  0.00     0.092 C 
ATOM     19  C   UNL     1      -2.322  -3.011  -1.984  1.00  0.00     0.025 C 
ATOM     20  C   UNL     1      -3.679  -3.776  -0.070  1.00  0.00     0.025 C 
ATOM     21  C   UNL     1      -1.514  -4.020  -1.162  1.00  0.00     0.002 C 
ATOM     22  C   UNL     1      -2.256  -4.256   0.150  1.00  0.00     0.002 C 
ENDBRANCH   9  18
ENDBRANCH   1   3
BRANCH   1  23
ATOM     23  C   UNL     1       1.850  -0.501   0.700  1.00  0.00     0.132 A 
ATOM     24  N   UNL     1       2.624  -0.787  -0.380  1.00  0.00    -0.237 NA
ATOM     25  C   UNL     1       2.242   0.496   1.598  1.00  0.00     0.049 A 
ATOM     26  C   UNL     1       3.825  -0.171  -0.581  1.00  0.00     0.139 A 
ATOM     27  C   UNL     1       3.443   1.170   1.397  1.00  0.00     0.031 A 
ATOM     28  C   UNL     1       4.282   0.822   0.312  1.00  0.00     0.055 A 
BRANCH  28  29
ATOM     29  N   UNL     1       5.584   1.434   0.142  1.00  0.00    -0.368 N 
ATOM     30  C   UNL     1       6.674   0.660  -0.495  1.00  0.00     0.132 C 
ATOM     31  C   UNL     1       5.938   2.643   0.906  1.00  0.00     0.132 C 
ATOM     32  C   UNL     1       8.002   1.016   0.161  1.00  0.00     0.102 C 
ATOM     33  C   UNL     1       7.201   3.347   0.363  1.00  0.00     0.102 C 
ATOM     34  N   UNL     1       8.308   2.440  -0.037  1.00  0.00    -0.313 NA
ATOM     35  H   UNL     1       8.481   2.576  -1.064  1.00  0.00     0.122 HD
ENDBRANCH  28  29
ENDBRANCH   1  23
TORSDOF 5
