REMARK SMILES CN(CCN1CCC(OC(=O)Nc2ccccc2-c2ccccc2)CC1)C(=O)c1ccc(CN2CCC(C(N)=O)CC2)cc1
REMARK SMILES IDX 3 1 2 2 1 3 27 4 28 5 29 6 30 7 44 8 31 9 43 10 32 11 33 12
REMARK SMILES IDX 34 13 35 14 42 15 36 16 41 17 37 18 38 19 39 20 40 21 4 24
REMARK SMILES IDX 5 25 6 26 26 27 7 28 25 29 8 30 9 31 10 32 11 33 12 34 13 36
REMARK SMILES IDX 14 37 18 38 15 39 17 40 16 41 19 42 20 43 24 44 21 45 23 46
REMARK SMILES IDX 22 47
REMARK H PARENT 39 22 39 23 12 35
REMARK Flexibility Score: inf
ROOT
ATOM      1  C   UNL     1       0.866   4.109  -2.222  1.00  0.00     0.135 C 
ENDROOT
BRANCH   1   2
ATOM      2  N   UNL     1       0.986   4.055  -0.756  1.00  0.00    -0.340 N 
ATOM      3  C   UNL     1       0.633   5.231   0.043  1.00  0.00     0.147 C 
BRANCH   2   4
ATOM      4  C   UNL     1       1.223   2.801  -0.082  1.00  0.00     0.253 C 
ATOM      5  O   UNL     1       0.545   2.510   0.941  1.00  0.00    -0.269 OA
BRANCH   4   6
ATOM      6  C   UNL     1       2.234   1.840  -0.576  1.00  0.00     0.040 A 
ATOM      7  C   UNL     1       3.414   2.296  -1.184  1.00  0.00     0.014 A 
ATOM      8  C   UNL     1       2.017   0.459  -0.450  1.00  0.00     0.014 A 
ATOM      9  C   UNL     1       4.343   1.386  -1.696  1.00  0.00     0.006 A 
ATOM     10  C   UNL     1       2.943  -0.452  -0.968  1.00  0.00     0.006 A 
ATOM     11  C   UNL     1       4.118   0.002  -1.592  1.00  0.00    -0.034 A 
BRANCH  11  12
ATOM     12  C   UNL     1       5.088  -0.988  -2.207  1.00  0.00     0.120 C 
BRANCH  12  13
ATOM     13  N   UNL     1       6.115  -1.483  -1.261  1.00  0.00    -0.299 NA
ATOM     14  C   UNL     1       5.570  -2.330  -0.179  1.00  0.00     0.085 C 
ATOM     15  C   UNL     1       7.116  -0.471  -0.843  1.00  0.00     0.085 C 
ATOM     16  C   UNL     1       6.694  -2.774   0.758  1.00  0.00     0.029 C 
ATOM     17  C   UNL     1       7.140  -0.240   0.677  1.00  0.00     0.029 C 
ATOM     18  C   UNL     1       7.350  -1.561   1.460  1.00  0.00     0.081 C 
BRANCH  18  19
ATOM     19  C   UNL     1       8.814  -1.845   1.721  1.00  0.00     0.220 C 
ATOM     20  N   UNL     1       9.217  -2.511   2.920  1.00  0.00    -0.369 N 
ATOM     21  O   UNL     1       9.682  -1.565   0.851  1.00  0.00    -0.275 OA
ATOM     22  H   UNL     1      10.227  -2.723   3.091  1.00  0.00     0.159 HD
ATOM     23  H   UNL     1       8.513  -2.797   3.637  1.00  0.00     0.159 HD
ENDBRANCH  18  19
ENDBRANCH  12  13
ENDBRANCH  11  12
ENDBRANCH   4   6
ENDBRANCH   2   4
ENDBRANCH   1   2
BRANCH   1  24
ATOM     24  C   UNL     1      -0.602   4.002  -2.654  1.00  0.00     0.106 C 
BRANCH  24  25
ATOM     25  N   UNL     1      -1.248   2.829  -2.028  1.00  0.00    -0.301 NA
ATOM     26  C   UNL     1      -2.708   3.014  -1.934  1.00  0.00     0.088 C 
ATOM     27  C   UNL     1      -0.952   1.584  -2.771  1.00  0.00     0.088 C 
ATOM     28  C   UNL     1      -3.344   1.905  -1.073  1.00  0.00     0.061 C 
ATOM     29  C   UNL     1      -1.655   0.359  -2.142  1.00  0.00     0.061 C 
ATOM     30  C   UNL     1      -2.390   0.715  -0.843  1.00  0.00     0.181 C 
BRANCH  30  31
ATOM     31  O   UNL     1      -3.115  -0.424  -0.379  1.00  0.00    -0.446 OA
BRANCH  31  32
ATOM     32  C   UNL     1      -3.670  -0.511   0.905  1.00  0.00     0.411 C 
ATOM     33  O   UNL     1      -3.486   0.412   1.748  1.00  0.00    -0.224 OA
ATOM     34  N   UNL     1      -4.477  -1.647   1.238  1.00  0.00    -0.291 N 
ATOM     35  H   UNL     1      -4.695  -2.321   0.472  1.00  0.00     0.173 HD
BRANCH  34  36
ATOM     36  C   UNL     1      -5.126  -1.814   2.511  1.00  0.00     0.052 A 
ATOM     37  C   UNL     1      -4.403  -1.611   3.699  1.00  0.00     0.027 A 
ATOM     38  C   UNL     1      -6.473  -2.250   2.582  1.00  0.00     0.005 A 
ATOM     39  C   UNL     1      -5.003  -1.827   4.941  1.00  0.00     0.002 A 
ATOM     40  C   UNL     1      -7.058  -2.473   3.842  1.00  0.00     0.011 A 
ATOM     41  C   UNL     1      -6.328  -2.257   5.013  1.00  0.00     0.001 A 
BRANCH  38  42
ATOM     42  C   UNL     1      -7.294  -2.438   1.362  1.00  0.00    -0.016 A 
ATOM     43  C   UNL     1      -8.012  -3.632   1.170  1.00  0.00     0.009 A 
ATOM     44  C   UNL     1      -7.392  -1.417   0.399  1.00  0.00     0.009 A 
ATOM     45  C   UNL     1      -8.796  -3.807   0.026  1.00  0.00     0.001 A 
ATOM     46  C   UNL     1      -8.174  -1.599  -0.745  1.00  0.00     0.001 A 
ATOM     47  C   UNL     1      -8.875  -2.793  -0.932  1.00  0.00     0.000 A 
ENDBRANCH  38  42
ENDBRANCH  34  36
ENDBRANCH  31  32
ENDBRANCH  30  31
ENDBRANCH  24  25
ENDBRANCH   1  24
TORSDOF 12
