REMARK SMILES Clc1ccc(CCCOCCCN2CCCCC2)cc1
REMARK SMILES IDX 9 1 8 2 7 3 6 4 5 5 1 6 2 7 3 8 20 9 4 10 19 11 10 12 11 13
REMARK SMILES IDX 12 14 13 15 14 16 18 17 15 18 17 19 16 20
REMARK H PARENT
REMARK Flexibility Score: inf
ROOT
ATOM      1  O   UNL     1       0.387  -1.046   0.264  1.00  0.00    -0.381 OA
ENDROOT
BRANCH   1   2
ATOM      2  C   UNL     1       1.231  -0.154  -0.442  1.00  0.00     0.160 C 
BRANCH   2   3
ATOM      3  C   UNL     1       2.699  -0.455  -0.126  1.00  0.00     0.033 C 
BRANCH   3   4
ATOM      4  C   UNL     1       3.635   0.455  -0.928  1.00  0.00     0.038 C 
BRANCH   4   5
ATOM      5  C   UNL     1       5.074   0.150  -0.606  1.00  0.00    -0.048 A 
ATOM      6  Cl  UNL     1       9.395  -0.863   0.449  1.00  0.00    -0.084 Cl
ATOM      7  C   UNL     1       7.732  -0.475   0.045  1.00  0.00     0.041 A 
ATOM      8  C   UNL     1       7.040   0.492   0.781  1.00  0.00     0.021 A 
ATOM      9  C   UNL     1       7.096  -1.137  -1.011  1.00  0.00     0.021 A 
ATOM     10  C   UNL     1       5.714   0.800   0.462  1.00  0.00     0.005 A 
ATOM     11  C   UNL     1       5.770  -0.830  -1.332  1.00  0.00     0.005 A 
ENDBRANCH   4   5
ENDBRANCH   3   4
ENDBRANCH   2   3
ENDBRANCH   1   2
BRANCH   1  12
ATOM     12  C   UNL     1      -0.040  -0.490   1.495  1.00  0.00     0.161 C 
BRANCH  12  13
ATOM     13  C   UNL     1      -1.371   0.254   1.329  1.00  0.00     0.044 C 
BRANCH  13  14
ATOM     14  C   UNL     1      -2.487  -0.673   0.826  1.00  0.00     0.087 C 
BRANCH  14  15
ATOM     15  N   UNL     1      -3.782   0.043   0.799  1.00  0.00    -0.303 NA
ATOM     16  C   UNL     1      -3.941   0.798  -0.464  1.00  0.00     0.084 C 
ATOM     17  C   UNL     1      -4.902  -0.909   0.963  1.00  0.00     0.084 C 
ATOM     18  C   UNL     1      -5.238   1.613  -0.441  1.00  0.00     0.016 C 
ATOM     19  C   UNL     1      -6.238  -0.162   1.032  1.00  0.00     0.016 C 
ATOM     20  C   UNL     1      -6.442   0.696  -0.219  1.00  0.00     0.003 C 
ENDBRANCH  14  15
ENDBRANCH  13  14
ENDBRANCH  12  13
ENDBRANCH   1  12
TORSDOF 8
