REMARK SMILES COP(=O)(OC)OC=C(Cl)Cl
REMARK SMILES IDX 3 1 4 2 2 3 1 4 5 5 6 6 7 7 8 8 9 9 10 10 11 11
REMARK H PARENT
REMARK Flexibility Score: inf
ROOT
ATOM      1  P   UNL     1       0.005   0.590  -0.041  1.00  0.00     0.529 P 
ATOM      2  O   UNL     1      -0.187   0.514   1.461  1.00  0.00    -0.216 OA
ENDROOT
BRANCH   1   3
ATOM      3  O   UNL     1      -1.079  -0.425  -0.892  1.00  0.00    -0.281 OA
ATOM      4  C   UNL     1      -1.820  -1.189   0.025  1.00  0.00     0.210 C 
ENDBRANCH   1   3
BRANCH   1   5
ATOM      5  O   UNL     1      -0.199   2.202  -0.556  1.00  0.00    -0.281 OA
ATOM      6  C   UNL     1      -1.543   2.559  -0.352  1.00  0.00     0.210 C 
ENDBRANCH   1   5
BRANCH   1   7
ATOM      7  O   UNL     1       1.609   0.107  -0.415  1.00  0.00    -0.409 OA
BRANCH   7   8
ATOM      8  C   UNL     1       2.063  -1.175  -0.113  1.00  0.00     0.232 C 
ATOM      9  C   UNL     1       3.307  -1.539  -0.413  1.00  0.00     0.141 C 
ATOM     10  Cl  UNL     1       4.416  -0.426  -1.195  1.00  0.00    -0.067 Cl
ATOM     11  Cl  UNL     1       3.863  -3.157  -0.027  1.00  0.00    -0.067 Cl
ENDBRANCH   7   8
ENDBRANCH   1   7
TORSDOF 4
