REMARK SMILES CCc1cc2c(cc1N1CCC(N3CCOCC3)CC1)C(C)(C)c1[nH]c3cc(C#N)ccc3c1C2=O
REMARK SMILES IDX 3 1 4 2 5 3 6 4 7 5 8 6 21 7 22 8 23 9 24 10 34 11 33 12
REMARK SMILES IDX 32 13 31 14 28 15 27 16 26 17 25 18 35 19 36 20 2 22 1 23
REMARK SMILES IDX 9 24 10 25 20 26 11 27 19 28 12 29 13 30 14 31 18 32 15 33
REMARK SMILES IDX 17 34 16 35 29 36 30 37
REMARK H PARENT 25 21
REMARK Flexibility Score: inf
ROOT
ATOM      1  C   UNL     1      -0.395   0.613  -1.612  1.00  0.00    -0.024 A 
ATOM      2  C   UNL     1      -1.780   0.478  -1.775  1.00  0.00     0.018 A 
ATOM      3  C   UNL     1      -2.606   0.109  -0.699  1.00  0.00     0.027 A 
ATOM      4  C   UNL     1      -2.035  -0.142   0.582  1.00  0.00    -0.023 A 
ATOM      5  C   UNL     1      -0.637  -0.018   0.722  1.00  0.00     0.031 A 
ATOM      6  C   UNL     1       0.178   0.346  -0.356  1.00  0.00     0.040 A 
ATOM      7  C   UNL     1      -2.884  -0.546   1.812  1.00  0.00     0.031 C 
ATOM      8  C   UNL     1      -2.429  -1.931   2.320  1.00  0.00     0.023 C 
ATOM      9  C   UNL     1      -2.712   0.507   2.926  1.00  0.00     0.023 C 
ATOM     10  C   UNL     1      -4.363  -0.636   1.478  1.00  0.00     0.037 A 
ATOM     11  C   UNL     1      -4.889  -0.395   0.226  1.00  0.00     0.052 A 
ATOM     12  C   UNL     1      -6.253  -0.587   0.332  1.00  0.00     0.011 A 
ATOM     13  C   UNL     1      -7.286  -0.489  -0.600  1.00  0.00     0.012 A 
ATOM     14  C   UNL     1      -8.595  -0.755  -0.159  1.00  0.00     0.020 A 
ATOM     15  C   UNL     1      -8.843  -1.110   1.188  1.00  0.00     0.054 A 
ATOM     16  C   UNL     1      -7.777  -1.202   2.106  1.00  0.00     0.046 A 
ATOM     17  C   UNL     1      -6.490  -0.932   1.641  1.00  0.00     0.048 A 
ATOM     18  N   UNL     1      -5.347  -0.966   2.351  1.00  0.00    -0.357 N 
ATOM     19  C   UNL     1      -4.064  -0.018  -0.913  1.00  0.00     0.195 C 
ATOM     20  O   UNL     1      -4.584   0.193  -2.042  1.00  0.00    -0.289 OA
ATOM     21  H   UNL     1      -5.248  -1.199   3.364  1.00  0.00     0.166 HD
ENDROOT
BRANCH   1  22
ATOM     22  C   UNL     1       0.458   0.971  -2.807  1.00  0.00     0.034 C 
ATOM     23  C   UNL     1       0.893  -0.283  -3.559  1.00  0.00     0.009 C 
ENDBRANCH   1  22
BRANCH   6  24
ATOM     24  N   UNL     1       1.596   0.442  -0.161  1.00  0.00    -0.371 N 
ATOM     25  C   UNL     1       2.365  -0.786   0.062  1.00  0.00     0.118 C 
ATOM     26  C   UNL     1       2.158   1.717   0.299  1.00  0.00     0.118 C 
ATOM     27  C   UNL     1       3.786  -0.622  -0.483  1.00  0.00     0.040 C 
ATOM     28  C   UNL     1       3.589   1.888  -0.222  1.00  0.00     0.040 C 
ATOM     29  C   UNL     1       4.443   0.649   0.109  1.00  0.00     0.060 C 
BRANCH  29  30
ATOM     30  N   UNL     1       5.854   0.862  -0.312  1.00  0.00    -0.296 NA
ATOM     31  C   UNL     1       6.109   0.714  -1.759  1.00  0.00     0.113 C 
ATOM     32  C   UNL     1       6.801   0.031   0.456  1.00  0.00     0.113 C 
ATOM     33  C   UNL     1       7.571   1.070  -2.051  1.00  0.00     0.175 C 
ATOM     34  C   UNL     1       8.239   0.396   0.062  1.00  0.00     0.175 C 
ATOM     35  O   UNL     1       8.442   0.222  -1.328  1.00  0.00    -0.379 OA
ENDBRANCH  29  30
ENDBRANCH   6  24
BRANCH  15  36
ATOM     36  C   UNL     1     -10.187  -1.379   1.624  1.00  0.00     0.099 C 
ATOM     37  N   UNL     1     -11.269  -1.595   1.974  1.00  0.00    -0.192 NA
ENDBRANCH  15  36
TORSDOF 4
