REMARK SMILES CN1CCC(C(=O)c2cccc(NC(=O)c3c(F)cc(F)cc3F)n2)CC1
REMARK SMILES IDX 8 1 9 2 10 3 11 4 12 5 25 6 6 7 7 8 5 9 1 10 2 11 3 12 27 13
REMARK SMILES IDX 4 14 26 15 13 16 14 17 15 19 16 20 17 21 23 22 18 23 19 24
REMARK SMILES IDX 22 25 24 26 20 27 21 28
REMARK H PARENT 13 18
REMARK Flexibility Score: inf
ROOT
ATOM      1  C   UNL     1      -0.847  -2.312  -0.590  1.00  0.00     0.109 A 
ATOM      2  C   UNL     1      -0.410  -3.590  -0.973  1.00  0.00     0.032 A 
ATOM      3  C   UNL     1       0.957  -3.868  -1.002  1.00  0.00     0.006 A 
ATOM      4  C   UNL     1       1.878  -2.877  -0.663  1.00  0.00     0.047 A 
ATOM      5  C   UNL     1       1.417  -1.599  -0.307  1.00  0.00     0.133 A 
ATOM      6  N   UNL     1       0.077  -1.364  -0.267  1.00  0.00    -0.228 NA
ENDROOT
BRANCH   1   7
ATOM      7  C   UNL     1      -2.291  -1.982  -0.541  1.00  0.00     0.184 C 
ATOM      8  O   UNL     1      -3.135  -2.825  -0.951  1.00  0.00    -0.292 OA
BRANCH   7   9
ATOM      9  C   UNL     1      -2.763  -0.622  -0.075  1.00  0.00     0.065 C 
ATOM     10  C   UNL     1      -5.256   2.863   0.214  1.00  0.00     0.105 C 
ATOM     11  N   UNL     1      -4.720   1.544  -0.156  1.00  0.00    -0.306 NA
ATOM     12  C   UNL     1      -4.597   0.696   1.047  1.00  0.00     0.085 C 
ATOM     13  C   UNL     1      -3.408   1.701  -0.815  1.00  0.00     0.085 C 
ATOM     14  C   UNL     1      -4.112  -0.706   0.662  1.00  0.00     0.027 C 
ATOM     15  C   UNL     1      -2.872   0.339  -1.270  1.00  0.00     0.027 C 
ENDBRANCH   7   9
ENDBRANCH   1   7
BRANCH   5  16
ATOM     16  N   UNL     1       2.319  -0.550   0.076  1.00  0.00    -0.306 N 
ATOM     17  C   UNL     1       3.658  -0.412  -0.430  1.00  0.00     0.262 C 
ATOM     18  H   UNL     1       1.938   0.221   0.669  1.00  0.00     0.171 HD
ATOM     19  O   UNL     1       3.982  -0.975  -1.511  1.00  0.00    -0.269 OA
BRANCH  17  20
ATOM     20  C   UNL     1       4.646   0.436   0.278  1.00  0.00     0.111 A 
ATOM     21  C   UNL     1       4.628   0.543   1.685  1.00  0.00     0.141 A 
ATOM     22  C   UNL     1       5.633   1.138  -0.446  1.00  0.00     0.141 A 
ATOM     23  F   UNL     1       3.734  -0.157   2.428  1.00  0.00    -0.206 F 
ATOM     24  C   UNL     1       5.566   1.345   2.344  1.00  0.00     0.079 A 
ATOM     25  C   UNL     1       6.565   1.938   0.224  1.00  0.00     0.079 A 
ATOM     26  F   UNL     1       5.682   1.073  -1.801  1.00  0.00    -0.206 F 
ATOM     27  C   UNL     1       6.530   2.043   1.615  1.00  0.00     0.129 A 
ATOM     28  F   UNL     1       7.437   2.819   2.259  1.00  0.00    -0.207 F 
ENDBRANCH  17  20
ENDBRANCH   5  16
TORSDOF 4
