REMARK SMILES Nc1ccccc1NC(=O)c1ccc(CNc2nccc(-c3cccnc3)n2)cc1
REMARK SMILES IDX 11 1 12 2 13 3 14 4 29 5 30 6 9 7 8 8 10 10 7 11 2 12 3 13
REMARK SMILES IDX 4 14 6 15 5 16 1 17 15 20 16 21 17 23 18 24 28 25 19 26
REMARK SMILES IDX 21 27 20 28 22 29 23 30 27 31 24 32 26 33 25 34
REMARK H PARENT 8 9 1 18 1 19 16 22
REMARK Flexibility Score: inf
ROOT
ATOM      1  C   UNL     1      -2.634  -0.309   0.589  1.00  0.00     0.040 A 
ATOM      2  C   UNL     1      -1.843  -0.163   1.743  1.00  0.00     0.014 A 
ATOM      3  C   UNL     1      -0.449  -0.124   1.649  1.00  0.00     0.006 A 
ATOM      4  C   UNL     1       0.180  -0.236   0.400  1.00  0.00    -0.029 A 
ATOM      5  C   UNL     1      -0.604  -0.355  -0.756  1.00  0.00     0.006 A 
ATOM      6  C   UNL     1      -1.998  -0.395  -0.663  1.00  0.00     0.014 A 
ENDROOT
BRANCH   1   7
ATOM      7  C   UNL     1      -4.112  -0.341   0.698  1.00  0.00     0.255 C 
ATOM      8  N   UNL     1      -4.920  -0.894  -0.355  1.00  0.00    -0.320 N 
ATOM      9  H   UNL     1      -4.489  -1.605  -0.988  1.00  0.00     0.170 HD
ATOM     10  O   UNL     1      -4.668   0.106   1.739  1.00  0.00    -0.269 OA
BRANCH   8  11
ATOM     11  C   UNL     1      -6.350  -0.776  -0.365  1.00  0.00     0.064 A 
ATOM     12  C   UNL     1      -6.993   0.485  -0.330  1.00  0.00     0.055 A 
ATOM     13  C   UNL     1      -8.396   0.541  -0.295  1.00  0.00     0.028 A 
ATOM     14  C   UNL     1      -9.154  -0.631  -0.326  1.00  0.00     0.002 A 
ATOM     15  C   UNL     1      -7.125  -1.944  -0.423  1.00  0.00     0.028 A 
ATOM     16  C   UNL     1      -8.519  -1.872  -0.399  1.00  0.00     0.002 A 
BRANCH  12  17
ATOM     17  N   UNL     1      -6.246   1.707  -0.383  1.00  0.00    -0.397 N 
ATOM     18  H   UNL     1      -5.224   1.717  -0.593  1.00  0.00     0.156 HD
ATOM     19  H   UNL     1      -6.730   2.628  -0.292  1.00  0.00     0.156 HD
ENDBRANCH  12  17
ENDBRANCH   8  11
ENDBRANCH   1   7
BRANCH   4  20
ATOM     20  C   UNL     1       1.679  -0.150   0.295  1.00  0.00     0.151 C 
BRANCH  20  21
ATOM     21  N   UNL     1       2.104   1.238   0.115  1.00  0.00    -0.350 N 
ATOM     22  H   UNL     1       1.392   2.004   0.083  1.00  0.00     0.164 HD
BRANCH  21  23
ATOM     23  C   UNL     1       3.485   1.588  -0.017  1.00  0.00     0.223 A 
ATOM     24  N   UNL     1       3.838   2.890  -0.181  1.00  0.00    -0.222 NA
ATOM     25  N   UNL     1       4.449   0.629   0.022  1.00  0.00    -0.213 NA
ATOM     26  C   UNL     1       5.141   3.250  -0.304  1.00  0.00     0.117 A 
ATOM     27  C   UNL     1       5.770   0.934  -0.105  1.00  0.00     0.077 A 
ATOM     28  C   UNL     1       6.141   2.279  -0.265  1.00  0.00     0.049 A 
BRANCH  27  29
ATOM     29  C   UNL     1       6.777  -0.157  -0.049  1.00  0.00     0.019 A 
ATOM     30  C   UNL     1       8.026  -0.048  -0.688  1.00  0.00     0.013 A 
ATOM     31  C   UNL     1       6.484  -1.352   0.633  1.00  0.00     0.121 A 
ATOM     32  C   UNL     1       8.944  -1.097  -0.621  1.00  0.00     0.021 A 
ATOM     33  N   UNL     1       7.398  -2.359   0.683  1.00  0.00    -0.264 NA
ATOM     34  C   UNL     1       8.609  -2.256   0.079  1.00  0.00     0.111 A 
ENDBRANCH  27  29
ENDBRANCH  21  23
ENDBRANCH  20  21
ENDBRANCH   4  20
TORSDOF 7
