REMARK SMILES c1ccc2c(c1)Nc1ccccc1S2
REMARK SMILES IDX 7 1 5 2 6 3 1 4 2 5 3 6 4 7 14 8 13 9 12 10 11 11 10 12 9 13
REMARK SMILES IDX 8 14
REMARK H PARENT 7 15
REMARK Flexibility Score: inf
ROOT
ATOM      1  N   UNL     1      -0.167   0.863   1.186  1.00  0.00    -0.354 N 
ATOM      2  C   UNL     1       1.156   0.529   0.735  1.00  0.00     0.053 A 
ATOM      3  C   UNL     1       2.151   0.191   1.664  1.00  0.00     0.027 A 
ATOM      4  C   UNL     1       3.386  -0.295   1.225  1.00  0.00     0.002 A 
ATOM      5  C   UNL     1       3.631  -0.454  -0.142  1.00  0.00     0.001 A 
ATOM      6  C   UNL     1       2.652  -0.103  -1.075  1.00  0.00     0.017 A 
ATOM      7  C   UNL     1       1.422   0.406  -0.641  1.00  0.00     0.036 A 
ATOM      8  S   UNL     1       0.244   1.039  -1.838  1.00  0.00    -0.086 SA
ATOM      9  C   UNL     1      -1.191   0.364  -0.999  1.00  0.00     0.036 A 
ATOM     10  C   UNL     1      -2.242  -0.182  -1.745  1.00  0.00     0.017 A 
ATOM     11  C   UNL     1      -3.425  -0.568  -1.108  1.00  0.00     0.001 A 
ATOM     12  C   UNL     1      -3.562  -0.407   0.274  1.00  0.00     0.002 A 
ATOM     13  C   UNL     1      -2.506   0.116   1.027  1.00  0.00     0.027 A 
ATOM     14  C   UNL     1      -1.308   0.489   0.398  1.00  0.00     0.053 A 
ATOM     15  H   UNL     1      -0.309   1.098   2.195  1.00  0.00     0.167 HD
ENDROOT
TORSDOF 0
