REMARK SMILES CN1CCN(c2ccc(C(=O)Nc3n[nH]c4ccc(Cc5cc(F)cc(F)c5)cc34)c(NC3CCOCC3)c2)CC1
REMARK SMILES IDX 10 1 11 2 12 3 9 5 6 6 7 7 39 8 8 9 31 10 5 11 1 12 2 13
REMARK SMILES IDX 3 14 41 15 4 16 40 17 32 18 33 20 34 21 38 22 35 23 37 24
REMARK SMILES IDX 36 25 13 26 14 27 30 28 15 29 16 30 29 31 17 33 19 34 18 35
REMARK SMILES IDX 20 36 21 37 22 38 28 39 23 40 26 41 24 42 25 43 27 44
REMARK H PARENT 12 4 32 19 15 32
REMARK Flexibility Score: inf
ROOT
ATOM      1  C   UNL     1       0.480  -1.360   0.637  1.00  0.00     0.258 C 
ATOM      2  O   UNL     1       0.256  -2.603   0.633  1.00  0.00    -0.269 OA
ATOM      3  N   UNL     1       1.821  -0.867   0.791  1.00  0.00    -0.304 N 
ATOM      4  H   UNL     1       1.996   0.154   0.660  1.00  0.00     0.171 HD
ENDROOT
BRANCH   1   5
ATOM      5  C   UNL     1      -0.656  -0.417   0.514  1.00  0.00     0.063 A 
ATOM      6  C   UNL     1      -2.888   1.313   0.505  1.00  0.00     0.039 A 
ATOM      7  C   UNL     1      -1.775   1.594   1.309  1.00  0.00     0.027 A 
ATOM      8  C   UNL     1      -2.869   0.179  -0.315  1.00  0.00     0.052 A 
ATOM      9  C   UNL     1      -0.671   0.740   1.312  1.00  0.00     0.018 A 
ATOM     10  C   UNL     1      -1.767  -0.696  -0.319  1.00  0.00     0.049 A 
BRANCH   6  11
ATOM     11  N   UNL     1      -4.055   2.155   0.543  1.00  0.00    -0.369 N 
ATOM     12  C   UNL     1      -7.561   4.347  -0.291  1.00  0.00     0.105 C 
ATOM     13  N   UNL     1      -6.278   3.621  -0.326  1.00  0.00    -0.303 NA
ATOM     14  C   UNL     1      -6.472   2.181   0.002  1.00  0.00     0.105 C 
ATOM     15  C   UNL     1      -5.283   4.294   0.532  1.00  0.00     0.105 C 
ATOM     16  C   UNL     1      -5.362   1.581   0.887  1.00  0.00     0.132 C 
ATOM     17  C   UNL     1      -3.923   3.608   0.383  1.00  0.00     0.132 C 
ENDBRANCH   6  11
BRANCH  10  18
ATOM     18  N   UNL     1      -1.758  -1.840  -1.193  1.00  0.00    -0.381 N 
ATOM     19  H   UNL     1      -0.846  -2.124  -1.626  1.00  0.00     0.160 HD
BRANCH  18  20
ATOM     20  C   UNL     1      -2.934  -2.693  -1.406  1.00  0.00     0.083 C 
ATOM     21  C   UNL     1      -2.614  -3.826  -2.393  1.00  0.00     0.053 C 
ATOM     22  C   UNL     1      -3.407  -3.293  -0.073  1.00  0.00     0.053 C 
ATOM     23  C   UNL     1      -3.796  -4.804  -2.469  1.00  0.00     0.162 C 
ATOM     24  C   UNL     1      -4.520  -4.321  -0.319  1.00  0.00     0.162 C 
ATOM     25  O   UNL     1      -4.082  -5.346  -1.193  1.00  0.00    -0.381 OA
ENDBRANCH  18  20
ENDBRANCH  10  18
ENDBRANCH   1   5
BRANCH   3  26
ATOM     26  C   UNL     1       2.941  -1.702   1.118  1.00  0.00     0.162 A 
ATOM     27  N   UNL     1       2.882  -3.047   1.292  1.00  0.00    -0.156 NA
ATOM     28  C   UNL     1       4.237  -1.276   1.320  1.00  0.00     0.044 A 
ATOM     29  N   UNL     1       4.105  -3.474   1.591  1.00  0.00    -0.276 N 
ATOM     30  C   UNL     1       4.934  -2.414   1.612  1.00  0.00     0.067 A 
ATOM     31  C   UNL     1       4.846  -0.025   1.274  1.00  0.00     0.018 A 
ATOM     32  H   UNL     1       4.357  -4.472   1.770  1.00  0.00     0.190 HD
ATOM     33  C   UNL     1       6.300  -2.394   1.875  1.00  0.00     0.029 A 
ATOM     34  C   UNL     1       6.231   0.042   1.548  1.00  0.00    -0.043 A 
ATOM     35  C   UNL     1       6.953  -1.147   1.840  1.00  0.00     0.006 A 
BRANCH  34  36
ATOM     36  C   UNL     1       6.948   1.362   1.470  1.00  0.00     0.071 C 
BRANCH  36  37
ATOM     37  C   UNL     1       7.332   1.656   0.044  1.00  0.00    -0.038 A 
ATOM     38  C   UNL     1       6.492   2.436  -0.772  1.00  0.00     0.043 A 
ATOM     39  C   UNL     1       8.505   1.107  -0.501  1.00  0.00     0.043 A 
ATOM     40  C   UNL     1       6.837   2.684  -2.104  1.00  0.00     0.126 A 
ATOM     41  C   UNL     1       8.844   1.353  -1.835  1.00  0.00     0.126 A 
ATOM     42  F   UNL     1       6.029   3.445  -2.885  1.00  0.00    -0.207 F 
ATOM     43  C   UNL     1       8.013   2.143  -2.634  1.00  0.00     0.078 A 
ATOM     44  F   UNL     1       9.977   0.817  -2.357  1.00  0.00    -0.207 F 
ENDBRANCH  36  37
ENDBRANCH  34  36
ENDBRANCH   3  26
TORSDOF 7
