REMARK SMILES COc1cc2c(Nc3ccc(Cl)c(Cl)c3F)ncnc2cc1OC[C@@H]1C[C@@H]2CN(C)C[C@@H]2C1
REMARK SMILES IDX 3 1 22 2 21 3 20 4 19 5 18 6 17 7 6 8 5 9 4 10 2 11 1 12
REMARK SMILES IDX 23 13 24 14 25 15 33 16 26 17 32 18 27 19 31 20 28 21 29 22
REMARK SMILES IDX 30 23 7 24 8 26 9 27 15 28 10 29 13 30 16 31 11 32 14 33
REMARK SMILES IDX 12 34
REMARK H PARENT 7 25
REMARK Flexibility Score: inf
ROOT
ATOM      1  C   UNL     1       1.013  -0.292  -1.623  1.00  0.00     0.161 A 
ATOM      2  C   UNL     1       0.031   0.529  -1.048  1.00  0.00     0.163 A 
ATOM      3  C   UNL     1       0.350   1.311   0.077  1.00  0.00     0.079 A 
ATOM      4  C   UNL     1       1.628   1.259   0.638  1.00  0.00     0.080 A 
ATOM      5  N   UNL     1       1.922   2.032   1.715  1.00  0.00    -0.236 NA
ATOM      6  C   UNL     1       3.153   2.007   2.280  1.00  0.00     0.224 A 
ATOM      7  N   UNL     1       4.115   1.192   1.779  1.00  0.00    -0.219 NA
ATOM      8  C   UNL     1       3.886   0.394   0.700  1.00  0.00     0.141 A 
ATOM      9  C   UNL     1       2.613   0.413   0.087  1.00  0.00     0.047 A 
ATOM     10  C   UNL     1       2.302  -0.346  -1.056  1.00  0.00     0.064 A 
ENDROOT
BRANCH   1  11
ATOM     11  O   UNL     1       0.666  -1.042  -2.759  1.00  0.00    -0.493 OA
ATOM     12  C   UNL     1       1.545  -1.928  -3.444  1.00  0.00     0.278 C 
ENDBRANCH   1  11
BRANCH   2  13
ATOM     13  O   UNL     1      -1.247   0.541  -1.634  1.00  0.00    -0.489 OA
BRANCH  13  14
ATOM     14  C   UNL     1      -2.411   1.157  -1.081  1.00  0.00     0.233 C 
BRANCH  14  15
ATOM     15  C   UNL     1      -2.929   0.361   0.131  1.00  0.00     0.027 C 
ATOM     16  C   UNL     1      -4.151   1.015   0.769  1.00  0.00     0.012 C 
ATOM     17  C   UNL     1      -3.359  -1.067  -0.235  1.00  0.00     0.012 C 
ATOM     18  C   UNL     1      -4.932  -0.140   1.393  1.00  0.00     0.008 C 
ATOM     19  C   UNL     1      -4.696  -1.316   0.478  1.00  0.00     0.008 C 
ATOM     20  C   UNL     1      -6.445   0.075   1.400  1.00  0.00     0.088 C 
ATOM     21  C   UNL     1      -5.907  -1.303  -0.450  1.00  0.00     0.088 C 
ATOM     22  N   UNL     1      -7.027  -0.738   0.317  1.00  0.00    -0.306 NA
ATOM     23  C   UNL     1      -7.927   0.051  -0.538  1.00  0.00     0.105 C 
ENDBRANCH  14  15
ENDBRANCH  13  14
ENDBRANCH   2  13
BRANCH   8  24
ATOM     24  N   UNL     1       4.925  -0.494   0.252  1.00  0.00    -0.337 N 
ATOM     25  H   UNL     1       4.655  -1.453  -0.061  1.00  0.00     0.168 HD
BRANCH  24  26
ATOM     26  C   UNL     1       6.327  -0.200   0.393  1.00  0.00     0.078 A 
ATOM     27  C   UNL     1       6.798   1.123   0.325  1.00  0.00     0.031 A 
ATOM     28  C   UNL     1       7.250  -1.249   0.549  1.00  0.00     0.166 A 
ATOM     29  C   UNL     1       8.163   1.393   0.440  1.00  0.00     0.024 A 
ATOM     30  C   UNL     1       8.620  -0.977   0.667  1.00  0.00     0.097 A 
ATOM     31  F   UNL     1       6.814  -2.533   0.603  1.00  0.00    -0.203 F 
ATOM     32  C   UNL     1       9.077   0.350   0.615  1.00  0.00     0.062 A 
ATOM     33  Cl  UNL     1       9.747  -2.312   0.881  1.00  0.00    -0.079 Cl
ATOM     34  Cl  UNL     1      10.788   0.735   0.755  1.00  0.00    -0.083 Cl
ENDBRANCH  24  26
ENDBRANCH   8  24
TORSDOF 6
