REMARK SMILES COc1cc2ncnc(Nc3ccc(F)c(Cl)c3)c2cc1NC(=O)/C=C/CN1CCCCC1
REMARK SMILES IDX 22 1 23 2 24 3 21 5 3 6 4 7 20 8 5 9 19 10 6 11 9 12 7 13
REMARK SMILES IDX 8 14 2 15 1 16 10 17 11 19 18 20 12 21 16 22 13 23 17 24
REMARK SMILES IDX 14 25 15 26 25 27 26 28 27 29 28 30 29 31 33 32 30 33 32 34
REMARK SMILES IDX 31 35
REMARK H PARENT 22 4 10 18
REMARK Flexibility Score: inf
ROOT
ATOM      1  N   UNL     1       0.453  -1.453   0.338  1.00  0.00    -0.319 N 
ATOM      2  C   UNL     1       0.988  -0.127   0.463  1.00  0.00     0.248 C 
ATOM      3  O   UNL     1       0.615   0.787  -0.324  1.00  0.00    -0.270 OA
ATOM      4  H   UNL     1       0.969  -2.234   0.804  1.00  0.00     0.170 HD
ENDROOT
BRANCH   1   5
ATOM      5  C   UNL     1      -0.689  -1.778  -0.475  1.00  0.00     0.084 A 
ATOM      6  C   UNL     1      -0.718  -2.995  -1.180  1.00  0.00     0.144 A 
ATOM      7  C   UNL     1      -1.851  -3.325  -1.947  1.00  0.00     0.077 A 
ATOM      8  C   UNL     1      -1.798  -0.915  -0.524  1.00  0.00     0.044 A 
ATOM      9  C   UNL     1      -2.943  -2.455  -2.011  1.00  0.00     0.080 A 
ATOM     10  C   UNL     1      -2.921  -1.233  -1.307  1.00  0.00     0.045 A 
ATOM     11  N   UNL     1      -4.033  -2.798  -2.746  1.00  0.00    -0.236 NA
ATOM     12  C   UNL     1      -4.056  -0.396  -1.400  1.00  0.00     0.141 A 
ATOM     13  C   UNL     1      -5.112  -1.980  -2.818  1.00  0.00     0.224 A 
ATOM     14  N   UNL     1      -5.115  -0.796  -2.156  1.00  0.00    -0.219 NA
BRANCH   6  15
ATOM     15  O   UNL     1       0.396  -3.847  -1.103  1.00  0.00    -0.494 OA
ATOM     16  C   UNL     1       0.503  -5.103  -1.764  1.00  0.00     0.278 C 
ENDBRANCH   6  15
BRANCH  12  17
ATOM     17  N   UNL     1      -4.093   0.896  -0.767  1.00  0.00    -0.340 N 
ATOM     18  H   UNL     1      -3.216   1.465  -0.743  1.00  0.00     0.168 HD
BRANCH  17  19
ATOM     19  C   UNL     1      -5.307   1.521  -0.316  1.00  0.00     0.041 A 
ATOM     20  C   UNL     1      -5.388   2.921  -0.269  1.00  0.00     0.049 A 
ATOM     21  C   UNL     1      -6.400   0.757   0.135  1.00  0.00     0.029 A 
ATOM     22  C   UNL     1      -6.551   3.551   0.188  1.00  0.00     0.078 A 
ATOM     23  C   UNL     1      -7.560   1.387   0.592  1.00  0.00     0.043 A 
ATOM     24  Cl  UNL     1      -6.637   5.303   0.221  1.00  0.00    -0.081 Cl
ATOM     25  C   UNL     1      -7.640   2.781   0.616  1.00  0.00     0.141 A 
ATOM     26  F   UNL     1      -8.773   3.382   1.059  1.00  0.00    -0.205 F 
ENDBRANCH  17  19
ENDBRANCH  12  17
ENDBRANCH   1   5
BRANCH   2  27
ATOM     27  C   UNL     1       2.011   0.149   1.488  1.00  0.00     0.068 C 
ATOM     28  C   UNL     1       2.607   1.341   1.603  1.00  0.00    -0.006 C 
BRANCH  28  29
ATOM     29  C   UNL     1       3.671   1.604   2.641  1.00  0.00     0.112 C 
BRANCH  29  30
ATOM     30  N   UNL     1       5.045   1.451   2.115  1.00  0.00    -0.300 NA
ATOM     31  C   UNL     1       5.400   2.496   1.125  1.00  0.00     0.085 C 
ATOM     32  C   UNL     1       5.390   0.060   1.723  1.00  0.00     0.085 C 
ATOM     33  C   UNL     1       6.692   2.141   0.382  1.00  0.00     0.016 C 
ATOM     34  C   UNL     1       5.484  -0.115   0.202  1.00  0.00     0.016 C 
ATOM     35  C   UNL     1       6.538   0.827  -0.405  1.00  0.00     0.003 C 
ENDBRANCH  29  30
ENDBRANCH  28  29
ENDBRANCH   2  27
TORSDOF 7
