REMARK SMILES Cn1ncnc1[C@H]1c2n[nH]c(=O)c3cc(F)cc(c23)N[C@@H]1c1ccc(F)cc1
REMARK SMILES IDX 7 1 21 2 20 3 18 4 19 5 8 6 9 7 10 8 11 9 12 10 13 11 14 12
REMARK SMILES IDX 15 13 16 14 17 15 6 18 1 19 2 20 3 21 4 22 5 23 22 24 23 25
REMARK SMILES IDX 28 26 24 27 27 28 25 29 26 30
REMARK H PARENT 20 16 10 17
REMARK Flexibility Score: inf
ROOT
ATOM      1  C   UNL     1      -0.108   0.455   0.650  1.00  0.00     0.136 C 
ATOM      2  C   UNL     1       0.753  -0.467  -0.253  1.00  0.00     0.126 C 
ATOM      3  N   UNL     1       0.145  -1.797  -0.353  1.00  0.00    -0.376 N 
ATOM      4  C   UNL     1      -1.275  -1.931  -0.498  1.00  0.00     0.048 A 
ATOM      5  C   UNL     1      -2.117  -0.848  -0.185  1.00  0.00     0.035 A 
ATOM      6  C   UNL     1      -1.583   0.346   0.324  1.00  0.00     0.084 A 
ATOM      7  N   UNL     1      -2.431   1.360   0.647  1.00  0.00    -0.176 NA
ATOM      8  N   UNL     1      -3.748   1.272   0.455  1.00  0.00    -0.243 N 
ATOM      9  C   UNL     1      -4.320   0.144  -0.045  1.00  0.00     0.272 A 
ATOM     10  O   UNL     1      -5.571   0.097  -0.204  1.00  0.00    -0.267 OA
ATOM     11  C   UNL     1      -3.511  -0.957  -0.370  1.00  0.00     0.055 A 
ATOM     12  C   UNL     1      -4.050  -2.161  -0.860  1.00  0.00     0.054 A 
ATOM     13  C   UNL     1      -3.211  -3.241  -1.151  1.00  0.00     0.126 A 
ATOM     14  F   UNL     1      -3.738  -4.400  -1.617  1.00  0.00    -0.207 F 
ATOM     15  C   UNL     1      -1.830  -3.128  -0.970  1.00  0.00     0.065 A 
ATOM     16  H   UNL     1       0.755  -2.621  -0.562  1.00  0.00     0.161 HD
ATOM     17  H   UNL     1      -4.348   2.088   0.709  1.00  0.00     0.194 HD
ENDROOT
BRANCH   1  18
ATOM     18  C   UNL     1       0.382   1.887   0.609  1.00  0.00     0.138 A 
ATOM     19  C   UNL     1      -0.111   2.463  -1.816  1.00  0.00     0.176 C 
ATOM     20  N   UNL     1       0.341   2.725  -0.453  1.00  0.00    -0.252 N 
ATOM     21  N   UNL     1       0.908   3.861  -0.092  1.00  0.00    -0.160 NA
ATOM     22  C   UNL     1       1.269   3.704   1.196  1.00  0.00     0.246 A 
ATOM     23  N   UNL     1       0.962   2.480   1.672  1.00  0.00    -0.219 NA
ENDBRANCH   1  18
BRANCH   2  24
ATOM     24  C   UNL     1       2.170  -0.566   0.275  1.00  0.00    -0.024 A 
ATOM     25  C   UNL     1       3.207   0.151  -0.349  1.00  0.00     0.009 A 
ATOM     26  C   UNL     1       2.458  -1.321   1.427  1.00  0.00     0.009 A 
ATOM     27  C   UNL     1       4.508   0.096   0.158  1.00  0.00     0.039 A 
ATOM     28  C   UNL     1       3.762  -1.374   1.929  1.00  0.00     0.039 A 
ATOM     29  C   UNL     1       4.787  -0.668   1.295  1.00  0.00     0.123 A 
ATOM     30  F   UNL     1       6.050  -0.718   1.785  1.00  0.00    -0.207 F 
ENDBRANCH   2  24
TORSDOF 2
