REMARK SMILES CCN1CCN(c2ccc(Nc3cc(N(C)C(=O)Nc4c(Cl)c(OC)cc(OC)c4Cl)ncn3)cc2)CC1
REMARK SMILES IDX 12 1 13 2 14 3 32 4 33 5 34 6 11 7 10 9 7 10 8 11 36 12 9 13
REMARK SMILES IDX 35 14 6 15 3 16 4 17 38 18 5 19 37 20 2 21 1 22 15 23 16 24
REMARK SMILES IDX 17 25 18 26 19 27 20 29 21 30 30 31 22 32 23 33 27 34 31 35
REMARK SMILES IDX 26 36 24 37 25 38 28 39 29 40
REMARK H PARENT 11 8 19 28
REMARK Flexibility Score: inf
ROOT
ATOM      1  C   UNL     1      -0.147  -0.543   0.519  1.00  0.00     0.135 A 
ATOM      2  C   UNL     1       0.980  -0.026   1.166  1.00  0.00     0.094 A 
ATOM      3  C   UNL     1       2.163   0.154   0.432  1.00  0.00     0.141 A 
ATOM      4  N   UNL     1       2.190  -0.219  -0.877  1.00  0.00    -0.219 NA
ATOM      5  C   UNL     1       1.097  -0.749  -1.484  1.00  0.00     0.226 A 
ATOM      6  N   UNL     1      -0.059  -0.905  -0.789  1.00  0.00    -0.219 NA
ENDROOT
BRANCH   1   7
ATOM      7  N   UNL     1      -1.373  -0.725   1.245  1.00  0.00    -0.340 N 
ATOM      8  H   UNL     1      -1.315  -0.844   2.282  1.00  0.00     0.168 HD
BRANCH   7   9
ATOM      9  C   UNL     1      -2.674  -0.775   0.632  1.00  0.00     0.040 A 
ATOM     10  C   UNL     1      -5.268  -0.824  -0.483  1.00  0.00     0.037 A 
ATOM     11  C   UNL     1      -4.239  -0.094  -1.103  1.00  0.00     0.028 A 
ATOM     12  C   UNL     1      -4.991  -1.509   0.713  1.00  0.00     0.028 A 
ATOM     13  C   UNL     1      -2.956  -0.065  -0.549  1.00  0.00     0.028 A 
ATOM     14  C   UNL     1      -3.707  -1.483   1.264  1.00  0.00     0.028 A 
BRANCH  10  15
ATOM     15  N   UNL     1      -6.597  -0.834  -1.042  1.00  0.00    -0.369 N 
ATOM     16  N   UNL     1      -9.245  -0.451  -0.476  1.00  0.00    -0.300 NA
ATOM     17  C   UNL     1      -8.779  -1.863  -0.472  1.00  0.00     0.106 C 
ATOM     18  C   UNL     1      -8.710   0.301  -1.636  1.00  0.00     0.106 C 
ATOM     19  C   UNL     1      -7.388  -2.067  -1.111  1.00  0.00     0.132 C 
ATOM     20  C   UNL     1      -7.176   0.394  -1.600  1.00  0.00     0.132 C 
BRANCH  16  21
ATOM     21  C   UNL     1      -9.006   0.211   0.828  1.00  0.00     0.081 C 
ATOM     22  C   UNL     1      -9.749   1.543   0.942  1.00  0.00     0.021 C 
ENDBRANCH  16  21
ENDBRANCH  10  15
ENDBRANCH   7   9
ENDBRANCH   1   7
BRANCH   3  23
ATOM     23  N   UNL     1       3.335   0.739   1.038  1.00  0.00    -0.281 N 
ATOM     24  C   UNL     1       3.195   1.899   1.929  1.00  0.00     0.157 C 
BRANCH  23  25
ATOM     25  C   UNL     1       4.649   0.228   0.717  1.00  0.00     0.327 C 
ATOM     26  O   UNL     1       4.761  -0.809   0.006  1.00  0.00    -0.248 OA
ATOM     27  N   UNL     1       5.839   0.879   1.192  1.00  0.00    -0.304 N 
ATOM     28  H   UNL     1       5.787   1.673   1.869  1.00  0.00     0.171 HD
BRANCH  27  29
ATOM     29  C   UNL     1       7.123   0.584   0.630  1.00  0.00     0.088 A 
ATOM     30  C   UNL     1       7.849  -0.525   1.096  1.00  0.00     0.108 A 
ATOM     31  C   UNL     1       7.658   1.419  -0.372  1.00  0.00     0.108 A 
ATOM     32  Cl  UNL     1       7.196  -1.539   2.385  1.00  0.00    -0.078 Cl
ATOM     33  C   UNL     1       9.104  -0.824   0.555  1.00  0.00     0.143 A 
ATOM     34  C   UNL     1       8.932   1.116  -0.929  1.00  0.00     0.143 A 
ATOM     35  Cl  UNL     1       6.688   2.815  -0.855  1.00  0.00    -0.078 Cl
ATOM     36  C   UNL     1       9.630  -0.001  -0.456  1.00  0.00     0.096 A 
BRANCH  33  37
ATOM     37  O   UNL     1       9.802  -1.942   1.044  1.00  0.00    -0.495 OA
ATOM     38  C   UNL     1      11.063  -2.387   0.555  1.00  0.00     0.278 C 
ENDBRANCH  33  37
BRANCH  34  39
ATOM     39  O   UNL     1       9.582   1.857  -1.937  1.00  0.00    -0.495 OA
ATOM     40  C   UNL     1       9.073   2.962  -2.672  1.00  0.00     0.278 C 
ENDBRANCH  34  39
ENDBRANCH  27  29
ENDBRANCH  23  25
ENDBRANCH   3  23
TORSDOF 9
