REMARK SMILES COc1ccc(CN(CCN(C)C)c2ncccn2)cc1
REMARK SMILES IDX 8 1 7 2 6 3 3 4 4 5 21 6 5 7 20 8 2 9 1 10 9 11 10 12 11 13
REMARK SMILES IDX 12 14 13 15 14 16 15 17 19 18 16 19 18 20 17 21
REMARK H PARENT
REMARK Flexibility Score: inf
ROOT
ATOM      1  N   UNL     1      -0.772  -0.155   0.616  1.00  0.00    -0.335 N 
ENDROOT
BRANCH   1   2
ATOM      2  C   UNL     1       0.276   0.044   1.629  1.00  0.00     0.155 C 
BRANCH   2   3
ATOM      3  C   UNL     1       1.626   0.145   0.971  1.00  0.00    -0.028 A 
ATOM      4  C   UNL     1       4.124   0.326  -0.319  1.00  0.00     0.118 A 
ATOM      5  C   UNL     1       3.227   1.399  -0.358  1.00  0.00     0.047 A 
ATOM      6  C   UNL     1       3.764  -0.846   0.374  1.00  0.00     0.047 A 
ATOM      7  C   UNL     1       1.986   1.312   0.279  1.00  0.00     0.009 A 
ATOM      8  C   UNL     1       2.524  -0.933   1.013  1.00  0.00     0.009 A 
BRANCH   4   9
ATOM      9  O   UNL     1       5.354   0.460  -0.980  1.00  0.00    -0.497 OA
ATOM     10  C   UNL     1       6.349  -0.557  -1.040  1.00  0.00     0.278 C 
ENDBRANCH   4   9
ENDBRANCH   2   3
ENDBRANCH   1   2
BRANCH   1  11
ATOM     11  C   UNL     1      -1.646   0.968   0.247  1.00  0.00     0.135 C 
BRANCH  11  12
ATOM     12  C   UNL     1      -3.028   0.802   0.910  1.00  0.00     0.105 C 
BRANCH  12  13
ATOM     13  N   UNL     1      -4.002   1.863   0.569  1.00  0.00    -0.308 NA
ATOM     14  C   UNL     1      -3.573   3.201   1.007  1.00  0.00     0.105 C 
ATOM     15  C   UNL     1      -4.374   1.861  -0.854  1.00  0.00     0.105 C 
ENDBRANCH  12  13
ENDBRANCH  11  12
ENDBRANCH   1  11
BRANCH   1  16
ATOM     16  C   UNL     1      -0.936  -1.443  -0.017  1.00  0.00     0.225 A 
ATOM     17  N   UNL     1      -1.779  -1.586  -1.079  1.00  0.00    -0.221 NA
ATOM     18  N   UNL     1      -0.252  -2.528   0.440  1.00  0.00    -0.221 NA
ATOM     19  C   UNL     1      -1.945  -2.787  -1.691  1.00  0.00     0.117 A 
ATOM     20  C   UNL     1      -0.391  -3.747  -0.142  1.00  0.00     0.117 A 
ATOM     21  C   UNL     1      -1.244  -3.901  -1.234  1.00  0.00     0.040 A 
ENDBRANCH   1  16
TORSDOF 7
