REMARK SMILES C[C@@H]1CC2=CC(=O)CC[C@@H]2[C@H]2CC[C@@]3(C)[C@@H](CC[C@]3(C)O)[C@@H]21
REMARK SMILES IDX 16 1 17 2 18 3 19 4 20 5 14 6 15 7 13 8 12 9 11 10 10 11
REMARK SMILES IDX 9 12 8 13 6 14 7 15 5 16 4 17 3 18 2 19 1 20 22 21 21 22
REMARK H PARENT 21 23
REMARK Flexibility Score: inf
ROOT
ATOM      1  C   UNL     1      -1.260   0.598   0.583  1.00  0.00     0.001 C 
ATOM      2  C   UNL     1      -1.967   1.214   1.781  1.00  0.00     0.007 C 
ATOM      3  C   UNL     1      -3.466   1.057   1.471  1.00  0.00     0.036 C 
ATOM      4  C   UNL     1      -3.595   0.136   0.218  1.00  0.00     0.068 C 
ATOM      5  C   UNL     1      -3.965   0.977  -1.030  1.00  0.00     0.042 C 
ATOM      6  C   UNL     1      -2.184  -0.544   0.129  1.00  0.00    -0.001 C 
ATOM      7  C   UNL     1      -2.163  -1.777   1.098  1.00  0.00     0.015 C 
ATOM      8  C   UNL     1      -1.708  -0.996  -1.275  1.00  0.00     0.010 C 
ATOM      9  C   UNL     1      -0.222  -1.431  -1.262  1.00  0.00     0.005 C 
ATOM     10  C   UNL     1       0.737  -0.366  -0.641  1.00  0.00    -0.000 C 
ATOM     11  C   UNL     1       2.196  -0.908  -0.514  1.00  0.00     0.019 C 
ATOM     12  C   UNL     1       2.788  -1.231  -1.911  1.00  0.00     0.016 C 
ATOM     13  C   UNL     1       4.263  -1.620  -1.828  1.00  0.00     0.081 C 
ATOM     14  C   UNL     1       5.033  -0.566  -1.102  1.00  0.00     0.155 C 
ATOM     15  O   UNL     1       6.249  -0.376  -1.371  1.00  0.00    -0.295 OA
ATOM     16  C   UNL     1       4.397   0.194  -0.018  1.00  0.00     0.046 C 
ATOM     17  C   UNL     1       3.086   0.073   0.255  1.00  0.00    -0.063 C 
ATOM     18  C   UNL     1       2.550   0.715   1.513  1.00  0.00     0.035 C 
ATOM     19  C   UNL     1       1.134   1.274   1.308  1.00  0.00    -0.006 C 
ATOM     20  C   UNL     1       1.179   2.572   0.475  1.00  0.00     0.008 C 
ATOM     21  C   UNL     1       0.214   0.158   0.736  1.00  0.00    -0.000 C 
ENDROOT
BRANCH   4  22
ATOM     22  O   UNL     1      -4.605  -0.829   0.412  1.00  0.00    -0.390 OA
ATOM     23  H   UNL     1      -5.450  -0.348   0.618  1.00  0.00     0.211 HD
ENDBRANCH   4  22
TORSDOF 1
