REMARK SMILES O=C(OCCO)c1ccccc1O
REMARK SMILES IDX 3 1 4 2 5 3 6 4 2 6 1 7 7 8 8 9 12 10 9 11 11 12 10 13 13 14
REMARK H PARENT 6 5 13 15
REMARK Flexibility Score: inf
ROOT
ATOM      1  O   UNL     1       1.173  -0.758   0.360  1.00  0.00    -0.460 OA
ENDROOT
BRANCH   1   2
ATOM      2  C   UNL     1       2.592  -0.866   0.263  1.00  0.00     0.261 C 
BRANCH   2   3
ATOM      3  C   UNL     1       3.265   0.397   0.802  1.00  0.00     0.197 C 
BRANCH   3   4
ATOM      4  O   UNL     1       4.658   0.247   0.788  1.00  0.00    -0.393 OA
ATOM      5  H   UNL     1       4.946   0.356  -0.156  1.00  0.00     0.210 HD
ENDBRANCH   3   4
ENDBRANCH   2   3
ENDBRANCH   1   2
BRANCH   1   6
ATOM      6  C   UNL     1       0.395   0.010  -0.514  1.00  0.00     0.341 C 
ATOM      7  O   UNL     1       0.940   0.644  -1.459  1.00  0.00    -0.246 OA
BRANCH   6   8
ATOM      8  C   UNL     1      -1.063   0.129  -0.299  1.00  0.00     0.101 A 
ATOM      9  C   UNL     1      -1.684   1.367  -0.552  1.00  0.00     0.019 A 
ATOM     10  C   UNL     1      -1.849  -0.946   0.187  1.00  0.00     0.130 A 
ATOM     11  C   UNL     1      -3.044   1.548  -0.289  1.00  0.00     0.001 A 
ATOM     12  C   UNL     1      -3.207  -0.742   0.465  1.00  0.00     0.047 A 
ATOM     13  C   UNL     1      -3.802   0.498   0.227  1.00  0.00     0.004 A 
BRANCH  10  14
ATOM     14  O   UNL     1      -1.333  -2.231   0.372  1.00  0.00    -0.507 OA
ATOM     15  H   UNL     1      -0.422  -2.517   0.039  1.00  0.00     0.293 HD
ENDBRANCH  10  14
ENDBRANCH   6   8
ENDBRANCH   1   6
TORSDOF 6
