REMARK SMILES O=C(Nc1nc(-c2cc(Cl)cs2)c(N2CCN(C3CCCCC3)CC2)s1)c1cnc(N2CCC(C(=O)O)CC2)c(Cl)c1
REMARK SMILES IDX 30 1 40 2 41 3 42 4 27 5 28 6 29 7 31 8 34 9 33 10 38 11
REMARK SMILES IDX 32 12 39 13 35 14 36 15 37 16 2 18 1 19 3 20 4 22 5 23 26 24
REMARK SMILES IDX 6 25 13 26 7 27 8 28 12 29 9 30 11 31 10 32 14 33 15 34
REMARK SMILES IDX 25 35 16 36 24 37 17 38 18 39 19 40 23 41 20 42 22 43 21 44
REMARK H PARENT 37 17 3 21
REMARK Flexibility Score: inf
ROOT
ATOM      1  C   UNL     1       6.811   0.386  -0.455  1.00  0.00     0.147 A 
ATOM      2  C   UNL     1       5.779   1.122  -1.066  1.00  0.00     0.084 A 
ATOM      3  Cl  UNL     1       6.104   2.540  -2.056  1.00  0.00    -0.080 Cl
ATOM      4  C   UNL     1       4.458   0.683  -0.935  1.00  0.00     0.040 A 
ATOM      5  C   UNL     1       4.163  -0.480  -0.205  1.00  0.00     0.060 A 
ATOM      6  C   UNL     1       5.230  -1.203   0.349  1.00  0.00     0.127 A 
ATOM      7  N   UNL     1       6.505  -0.757   0.216  1.00  0.00    -0.237 NA
ENDROOT
BRANCH   1   8
ATOM      8  N   UNL     1       8.183   0.805  -0.532  1.00  0.00    -0.355 N 
ATOM      9  C   UNL     1      10.770   0.906   0.581  1.00  0.00     0.102 C 
ATOM     10  C   UNL     1       9.778   2.053   0.908  1.00  0.00     0.037 C 
ATOM     11  C   UNL     1      10.608   0.390  -0.858  1.00  0.00     0.037 C 
ATOM     12  C   UNL     1       8.587   2.138  -0.062  1.00  0.00     0.119 C 
ATOM     13  C   UNL     1       9.182  -0.134  -1.060  1.00  0.00     0.119 C 
BRANCH   9  14
ATOM     14  C   UNL     1      12.190   1.336   0.835  1.00  0.00     0.306 C 
ATOM     15  O   UNL     1      12.807   0.907   1.846  1.00  0.00    -0.252 OA
BRANCH  14  16
ATOM     16  O   UNL     1      12.813   2.235  -0.027  1.00  0.00    -0.481 OA
ATOM     17  H   UNL     1      13.765   2.538   0.139  1.00  0.00     0.296 HD
ENDBRANCH  14  16
ENDBRANCH   9  14
ENDBRANCH   1   8
BRANCH   5  18
ATOM     18  C   UNL     1       2.768  -0.954  -0.030  1.00  0.00     0.259 C 
ATOM     19  O   UNL     1       2.562  -2.175   0.215  1.00  0.00    -0.269 OA
ATOM     20  N   UNL     1       1.661  -0.037  -0.096  1.00  0.00    -0.298 N 
ATOM     21  H   UNL     1       1.850   0.987  -0.150  1.00  0.00     0.172 HD
BRANCH  20  22
ATOM     22  C   UNL     1       0.288  -0.435   0.021  1.00  0.00     0.192 A 
ATOM     23  N   UNL     1      -0.124  -1.718   0.133  1.00  0.00    -0.217 NA
ATOM     24  S   UNL     1      -0.997   0.647   0.057  1.00  0.00    -0.079 S 
ATOM     25  C   UNL     1      -1.475  -1.813   0.257  1.00  0.00     0.117 A 
ATOM     26  C   UNL     1      -2.135  -0.580   0.233  1.00  0.00     0.122 A 
BRANCH  25  27
ATOM     27  C   UNL     1      -2.121  -3.122   0.460  1.00  0.00     0.057 A 
ATOM     28  C   UNL     1      -3.330  -3.372   1.103  1.00  0.00     0.042 A 
ATOM     29  S   UNL     1      -1.440  -4.600   0.028  1.00  0.00    -0.140 S 
ATOM     30  C   UNL     1      -3.640  -4.735   1.180  1.00  0.00     0.052 A 
ATOM     31  C   UNL     1      -2.681  -5.568   0.620  1.00  0.00     0.086 A 
ATOM     32  Cl  UNL     1      -5.098  -5.339   1.938  1.00  0.00    -0.083 Cl
ENDBRANCH  25  27
BRANCH  26  33
ATOM     33  N   UNL     1      -3.553  -0.365   0.219  1.00  0.00    -0.359 N 
ATOM     34  C   UNL     1      -4.357  -0.856  -0.901  1.00  0.00     0.133 C 
ATOM     35  C   UNL     1      -4.169   0.531   1.199  1.00  0.00     0.133 C 
ATOM     36  C   UNL     1      -5.843  -0.823  -0.528  1.00  0.00     0.106 C 
ATOM     37  C   UNL     1      -5.266   1.363   0.523  1.00  0.00     0.106 C 
ATOM     38  N   UNL     1      -6.310   0.541  -0.161  1.00  0.00    -0.297 NA
BRANCH  38  39
ATOM     39  C   UNL     1      -7.613   0.567   0.574  1.00  0.00     0.056 C 
ATOM     40  C   UNL     1      -8.187   2.024   0.568  1.00  0.00     0.019 C 
ATOM     41  C   UNL     1      -8.673  -0.433   0.015  1.00  0.00     0.019 C 
ATOM     42  C   UNL     1      -9.699   2.108   0.315  1.00  0.00     0.002 C 
ATOM     43  C   UNL     1      -9.322   0.106  -1.262  1.00  0.00     0.002 C 
ATOM     44  C   UNL     1     -10.087   1.422  -1.007  1.00  0.00     0.000 C 
ENDBRANCH  38  39
ENDBRANCH  26  33
ENDBRANCH  20  22
ENDBRANCH   5  18
TORSDOF 8
