REMARK SMILES Cc1cncc(CN2CCC(=C3c4ccc(Cl)cc4CCc4cccnc43)CC2)c1
REMARK SMILES IDX 8 1 9 2 10 3 11 4 28 5 29 6 12 7 7 8 6 9 1 10 2 11 30 12
REMARK SMILES IDX 3 13 4 14 5 15 13 16 14 17 19 18 15 19 18 20 16 21 17 22
REMARK SMILES IDX 20 23 27 25 22 26 26 27 23 28 25 29 24 30 21 31
REMARK H PARENT
REMARK Flexibility Score: 90.00
ROOT
ATOM      1  N   UNL     1       2.125   0.390   0.350  1.00  0.00    -0.298 NA
ATOM      2  C   UNL     1       1.667  -0.390  -0.831  1.00  0.00     0.089 C 
ATOM      3  C   UNL     1       0.229  -0.916  -0.706  1.00  0.00     0.047 C 
ATOM      4  C   UNL     1      -0.734   0.219  -0.425  1.00  0.00    -0.058 C 
ATOM      5  C   UNL     1      -0.150   1.443   0.250  1.00  0.00     0.047 C 
ATOM      6  C   UNL     1       1.037   1.030   1.127  1.00  0.00     0.089 C 
ATOM      7  C   UNL     1      -2.068   0.097  -0.666  1.00  0.00     0.007 C 
ENDROOT
BRANCH   1   8
ATOM      8  C   UNL     1       2.999  -0.404   1.237  1.00  0.00     0.121 C 
BRANCH   8   9
ATOM      9  C   UNL     1       4.369  -0.556   0.629  1.00  0.00    -0.015 A 
ATOM     10  C   UNL     1       7.299   1.632  -0.432  1.00  0.00     0.046 C 
ATOM     11  C   UNL     1       6.449   0.428  -0.153  1.00  0.00    -0.032 A 
ATOM     12  C   UNL     1       5.173   0.571   0.409  1.00  0.00     0.011 A 
ATOM     13  C   UNL     1       6.887  -0.852  -0.515  1.00  0.00     0.114 A 
ATOM     14  N   UNL     1       6.095  -1.934  -0.294  1.00  0.00    -0.264 NA
ATOM     15  C   UNL     1       4.862  -1.817   0.267  1.00  0.00     0.116 A 
ENDBRANCH   8   9
ENDBRANCH   1   8
BRANCH   7  16
ATOM     16  C   UNL     1      -3.031   1.195  -0.390  1.00  0.00    -0.013 A 
ATOM     17  C   UNL     1      -2.822   2.423  -1.048  1.00  0.00     0.010 A 
ATOM     18  C   UNL     1      -4.169   1.049   0.464  1.00  0.00    -0.038 A 
ATOM     19  C   UNL     1      -3.678   3.503  -0.843  1.00  0.00     0.021 A 
ATOM     20  C   UNL     1      -5.020   2.157   0.645  1.00  0.00     0.024 A 
ATOM     21  C   UNL     1      -4.772   3.373   0.006  1.00  0.00     0.041 A 
ATOM     22  Cl  UNL     1      -5.854   4.732   0.256  1.00  0.00    -0.084 Cl
BRANCH  18  23
ATOM     23  C   UNL     1      -4.606  -0.233   1.173  1.00  0.00     0.041 CG0
ATOM     24  G   UNL     1      -3.628  -1.411   1.197  1.00  0.00     0.000 G0
ENDBRANCH  18  23
ENDBRANCH   7  16
BRANCH   7  25
ATOM     25  C   UNL     1      -2.644  -1.187  -1.099  1.00  0.00     0.074 A 
ATOM     26  C   UNL     1      -3.400  -1.939  -0.192  1.00  0.00    -0.021 A 
ATOM     27  N   UNL     1      -2.473  -1.625  -2.376  1.00  0.00    -0.256 NA
ATOM     28  C   UNL     1      -3.975  -3.142  -0.623  1.00  0.00     0.007 A 
ATOM     29  C   UNL     1      -3.014  -2.796  -2.807  1.00  0.00     0.112 A 
ATOM     30  C   UNL     1      -3.775  -3.577  -1.935  1.00  0.00     0.020 A 
BRANCH  26  31
ATOM     31  C   UNL     1      -3.628  -1.411   1.197  1.00  0.00     0.042 CG0
ATOM     32  G   UNL     1      -4.606  -0.233   1.173  1.00  0.00     0.000 G0
ENDBRANCH  26  31
ENDBRANCH   7  25
TORSDOF 2
