REMARK SMILES CCCc1cc(O)c2c(c1)OC(C)(C)[C@@H]1CCC(C)=C[C@@H]21
REMARK SMILES IDX 4 1 5 2 6 3 8 4 21 5 20 6 18 7 19 8 17 9 16 10 15 11 12 12
REMARK SMILES IDX 13 13 14 14 11 15 9 16 10 17 3 18 2 19 1 20 7 21
REMARK H PARENT 7 22
REMARK Flexibility Score: inf
ROOT
ATOM      1  C   UNL     1       2.981  -0.703   0.799  1.00  0.00    -0.041 A 
ATOM      2  C   UNL     1       2.308  -1.834   0.323  1.00  0.00     0.050 A 
ATOM      3  C   UNL     1       0.933  -1.798   0.063  1.00  0.00     0.123 A 
ATOM      4  C   UNL     1       0.187  -0.628   0.389  1.00  0.00     0.043 A 
ATOM      5  C   UNL     1      -1.328  -0.514   0.499  1.00  0.00     0.056 C 
ATOM      6  C   UNL     1      -2.141  -1.730   0.101  1.00  0.00    -0.019 C 
ATOM      7  C   UNL     1      -3.284  -1.659  -0.612  1.00  0.00    -0.077 C 
ATOM      8  C   UNL     1      -4.048  -2.923  -0.901  1.00  0.00     0.039 C 
ATOM      9  C   UNL     1      -3.781  -0.349  -1.181  1.00  0.00     0.031 C 
ATOM     10  C   UNL     1      -3.295   0.843  -0.355  1.00  0.00     0.013 C 
ATOM     11  C   UNL     1      -1.760   0.787  -0.216  1.00  0.00     0.044 C 
ATOM     12  C   UNL     1      -1.122   2.036   0.497  1.00  0.00     0.107 C 
ATOM     13  C   UNL     1      -1.076   3.228  -0.475  1.00  0.00     0.056 C 
ATOM     14  C   UNL     1      -1.896   2.464   1.761  1.00  0.00     0.056 C 
ATOM     15  O   UNL     1       0.234   1.766   0.895  1.00  0.00    -0.487 OA
ATOM     16  C   UNL     1       0.894   0.535   0.760  1.00  0.00     0.127 A 
ATOM     17  C   UNL     1       2.271   0.489   0.981  1.00  0.00     0.050 A 
ENDROOT
BRANCH   1  18
ATOM     18  C   UNL     1       4.472  -0.746   1.024  1.00  0.00     0.035 C 
BRANCH  18  19
ATOM     19  C   UNL     1       5.258  -0.623  -0.289  1.00  0.00     0.001 C 
ATOM     20  C   UNL     1       5.113   0.757  -0.930  1.00  0.00     0.004 C 
ENDBRANCH  18  19
ENDBRANCH   1  18
BRANCH   3  21
ATOM     21  O   UNL     1       0.384  -2.911  -0.572  1.00  0.00    -0.507 OA
ATOM     22  H   UNL     1      -0.378  -2.841  -1.233  1.00  0.00     0.293 HD
ENDBRANCH   3  21
TORSDOF 3
