REMARK SMILES CCCCC(CC)CCC(CC(C)C)OS(=O)(=O)O
REMARK SMILES IDX 8 1 5 2 4 3 3 4 2 5 1 6 6 7 7 8 9 9 10 10 11 11 12 12 13 13
REMARK SMILES IDX 14 14 15 15 16 16 17 17 18 18 19 19
REMARK H PARENT 19 20
REMARK Flexibility Score: inf
ROOT
ATOM      1  C   UNL     1       0.108  -0.294   1.596  1.00  0.00     0.006 C 
ENDROOT
BRANCH   1   2
ATOM      2  C   UNL     1       1.120  -1.213   0.859  1.00  0.00    -0.011 C 
BRANCH   2   3
ATOM      3  C   UNL     1       2.195  -0.439   0.046  1.00  0.00     0.003 C 
BRANCH   3   4
ATOM      4  C   UNL     1       3.116   0.457   0.897  1.00  0.00     0.000 C 
BRANCH   4   5
ATOM      5  C   UNL     1       4.079   1.291   0.038  1.00  0.00    -0.003 C 
ATOM      6  C   UNL     1       5.172   0.446  -0.617  1.00  0.00     0.004 C 
ENDBRANCH   4   5
ENDBRANCH   3   4
ENDBRANCH   2   3
BRANCH   2   7
ATOM      7  C   UNL     1       1.727  -2.217   1.870  1.00  0.00    -0.000 C 
ATOM      8  C   UNL     1       2.617  -3.277   1.220  1.00  0.00     0.004 C 
ENDBRANCH   2   7
ENDBRANCH   1   2
BRANCH   1   9
ATOM      9  C   UNL     1      -0.596   0.768   0.726  1.00  0.00     0.034 C 
BRANCH   9  10
ATOM     10  C   UNL     1      -1.478   0.172  -0.395  1.00  0.00     0.142 C 
BRANCH  10  11
ATOM     11  C   UNL     1      -2.147   1.298  -1.235  1.00  0.00     0.036 C 
BRANCH  11  12
ATOM     12  C   UNL     1      -3.603   1.667  -0.849  1.00  0.00    -0.015 C 
ATOM     13  C   UNL     1      -4.174   2.664  -1.867  1.00  0.00     0.007 C 
ATOM     14  C   UNL     1      -3.707   2.256   0.565  1.00  0.00     0.007 C 
ENDBRANCH  11  12
ENDBRANCH  10  11
BRANCH  10  15
ATOM     15  O   UNL     1      -2.445  -0.689   0.179  1.00  0.00    -0.245 OA
BRANCH  15  16
ATOM     16  S   UNL     1      -2.775  -1.989  -0.864  1.00  0.00     0.397 S 
ATOM     17  O   UNL     1      -3.148  -1.491  -2.232  1.00  0.00    -0.169 OA
ATOM     18  O   UNL     1      -1.579  -2.893  -0.967  1.00  0.00    -0.169 OA
BRANCH  16  19
ATOM     19  O   UNL     1      -4.068  -2.863  -0.242  1.00  0.00    -0.264 OA
ATOM     20  H   UNL     1      -3.828  -3.031   0.705  1.00  0.00     0.236 HD
ENDBRANCH  16  19
ENDBRANCH  15  16
ENDBRANCH  10  15
ENDBRANCH   9  10
ENDBRANCH   1   9
TORSDOF 12
