REMARK SMILES CN[C@]1(c2ccccc2Cl)CCCCC1=O
REMARK SMILES IDX 3 1 11 2 12 3 13 4 14 5 15 6 16 7 2 8 1 9 4 11 5 12 9 13
REMARK SMILES IDX 6 14 8 15 10 16 7 17
REMARK H PARENT 2 10
REMARK Flexibility Score: inf
ROOT
ATOM      1  C   UNL     1      -0.348   0.527  -0.655  1.00  0.00     0.104 C 
ATOM      2  C   UNL     1      -1.090  -0.535  -1.523  1.00  0.00     0.035 C 
ATOM      3  C   UNL     1      -1.832  -1.581  -0.692  1.00  0.00     0.003 C 
ATOM      4  C   UNL     1      -2.944  -0.898   0.092  1.00  0.00     0.008 C 
ATOM      5  C   UNL     1      -2.378   0.124   1.077  1.00  0.00     0.078 C 
ATOM      6  C   UNL     1      -1.257   0.976   0.514  1.00  0.00     0.157 C 
ATOM      7  O   UNL     1      -0.998   2.009   1.112  1.00  0.00    -0.297 OA
ENDROOT
BRANCH   1   8
ATOM      8  N   UNL     1      -0.070   1.689  -1.542  1.00  0.00    -0.304 NA
ATOM      9  C   UNL     1       0.759   2.763  -0.968  1.00  0.00     0.102 C 
ATOM     10  H   UNL     1      -0.971   2.114  -1.867  1.00  0.00     0.123 HD
ENDBRANCH   1   8
BRANCH   1  11
ATOM     11  C   UNL     1       0.977  -0.114  -0.160  1.00  0.00    -0.002 A 
ATOM     12  C   UNL     1       1.122  -0.534   1.186  1.00  0.00     0.007 A 
ATOM     13  C   UNL     1       2.071  -0.355  -1.045  1.00  0.00     0.046 A 
ATOM     14  C   UNL     1       2.300  -1.131   1.636  1.00  0.00     0.000 A 
ATOM     15  C   UNL     1       3.245  -0.955  -0.572  1.00  0.00     0.021 A 
ATOM     16  Cl  UNL     1       2.046   0.059  -2.760  1.00  0.00    -0.084 Cl
ATOM     17  C   UNL     1       3.361  -1.338   0.761  1.00  0.00     0.002 A 
ENDBRANCH   1  11
TORSDOF 2
