REMARK SMILES CCOCCn1c(C2CCN(CCc3ccc(C(C)(C)C(=O)O)cc3)CC2)nc2ccccc21
REMARK SMILES IDX 8 1 9 2 10 3 11 4 26 5 27 6 7 7 6 8 34 9 28 10 29 11 33 12
REMARK SMILES IDX 30 13 32 14 31 15 5 16 4 17 3 18 2 19 1 20 12 21 13 22 14 23
REMARK SMILES IDX 15 24 25 25 16 26 24 27 17 28 18 29 19 30 20 31 21 32 22 33
REMARK SMILES IDX 23 34
REMARK H PARENT 23 35
REMARK Flexibility Score: inf
ROOT
ATOM      1  C   UNL     1       1.232  -0.920  -0.082  1.00  0.00     0.058 C 
ATOM      2  C   UNL     1       0.931  -0.662   1.411  1.00  0.00     0.027 C 
ATOM      3  C   UNL     1       0.284   0.717   1.684  1.00  0.00     0.085 C 
ATOM      4  N   UNL     1      -0.277   1.316   0.457  1.00  0.00    -0.303 NA
ATOM      5  C   UNL     1      -1.004   0.338  -0.367  1.00  0.00     0.085 C 
ATOM      6  C   UNL     1      -0.006  -0.657  -0.982  1.00  0.00     0.027 C 
ENDROOT
BRANCH   1   7
ATOM      7  C   UNL     1       2.434  -0.117  -0.543  1.00  0.00     0.113 A 
ATOM      8  N   UNL     1       3.606  -0.656  -0.994  1.00  0.00    -0.325 N 
ATOM      9  C   UNL     1       4.375   0.415  -1.265  1.00  0.00     0.068 A 
ATOM     10  N   UNL     1       2.441   1.243  -0.544  1.00  0.00    -0.233 NA
ATOM     11  C   UNL     1       3.667   1.549  -0.998  1.00  0.00     0.089 A 
ATOM     12  C   UNL     1       5.692   0.466  -1.733  1.00  0.00     0.028 A 
ATOM     13  C   UNL     1       4.210   2.819  -1.175  1.00  0.00     0.030 A 
ATOM     14  C   UNL     1       6.271   1.734  -1.921  1.00  0.00     0.002 A 
ATOM     15  C   UNL     1       5.533   2.906  -1.643  1.00  0.00     0.002 A 
BRANCH   8  16
ATOM     16  C   UNL     1       3.994  -2.070  -1.075  1.00  0.00     0.152 C 
BRANCH  16  17
ATOM     17  C   UNL     1       4.440  -2.592   0.296  1.00  0.00     0.182 C 
BRANCH  17  18
ATOM     18  O   UNL     1       5.465  -1.778   0.837  1.00  0.00    -0.380 OA
BRANCH  18  19
ATOM     19  C   UNL     1       6.737  -2.305   0.524  1.00  0.00     0.157 C 
ATOM     20  C   UNL     1       7.809  -1.322   0.972  1.00  0.00     0.035 C 
ENDBRANCH  18  19
ENDBRANCH  17  18
ENDBRANCH  16  17
ENDBRANCH   8  16
ENDBRANCH   1   7
BRANCH   4  21
ATOM     21  C   UNL     1      -0.957   2.617   0.649  1.00  0.00     0.089 C 
BRANCH  21  22
ATOM     22  C   UNL     1      -2.154   2.621   1.628  1.00  0.00     0.051 C 
BRANCH  22  23
ATOM     23  C   UNL     1      -3.314   1.775   1.171  1.00  0.00    -0.047 A 
ATOM     24  C   UNL     1      -3.706   0.649   1.907  1.00  0.00     0.004 A 
ATOM     25  C   UNL     1      -4.015   2.108   0.005  1.00  0.00     0.004 A 
ATOM     26  C   UNL     1      -4.767  -0.149   1.471  1.00  0.00     0.005 A 
ATOM     27  C   UNL     1      -5.074   1.311  -0.434  1.00  0.00     0.005 A 
ATOM     28  C   UNL     1      -5.483   0.174   0.296  1.00  0.00    -0.031 A 
BRANCH  28  29
ATOM     29  C   UNL     1      -6.614  -0.710  -0.256  1.00  0.00     0.087 C 
ATOM     30  C   UNL     1      -6.063  -1.501  -1.461  1.00  0.00     0.028 C 
ATOM     31  C   UNL     1      -7.162  -1.720   0.779  1.00  0.00     0.028 C 
BRANCH  29  32
ATOM     32  C   UNL     1      -7.782   0.164  -0.681  1.00  0.00     0.313 C 
ATOM     33  O   UNL     1      -8.275   0.992   0.133  1.00  0.00    -0.251 OA
BRANCH  32  34
ATOM     34  O   UNL     1      -8.341   0.043  -1.952  1.00  0.00    -0.481 OA
ATOM     35  H   UNL     1      -9.125   0.621  -2.233  1.00  0.00     0.296 HD
ENDBRANCH  32  34
ENDBRANCH  29  32
ENDBRANCH  28  29
ENDBRANCH  22  23
ENDBRANCH  21  22
ENDBRANCH   4  21
TORSDOF 11
