REMARK SMILES CC(C)[C@H]1C(=O)N2CCC[C@H]2[C@]2(O)O[C@](NC(=O)[C@@H]3C[C@@H]4c5cccc6[nH]cc(c56)C[C@H]4N(C)C3)(C(C)C)C(=O)N12
REMARK SMILES IDX 11 1 10 2 9 3 8 4 7 5 5 6 6 7 4 8 41 9 39 10 40 11 15 12
REMARK SMILES IDX 14 13 12 14 13 15 2 17 1 18 3 19 16 20 17 21 18 23 19 24
REMARK SMILES IDX 35 25 20 26 33 27 21 28 34 29 32 30 22 31 31 32 23 33 30 34
REMARK SMILES IDX 29 35 24 36 26 37 28 38 25 39 27 40 36 42 37 43 38 44
REMARK H PARENT 13 16 16 22 27 41
REMARK Flexibility Score: inf
ROOT
ATOM      1  C   UNL     1      -4.731  -0.972  -0.878  1.00  0.00     0.168 C 
ATOM      2  C   UNL     1      -5.020  -1.108  -2.373  1.00  0.00     0.035 C 
ATOM      3  C   UNL     1      -6.523  -0.890  -2.498  1.00  0.00     0.024 C 
ATOM      4  C   UNL     1      -6.930  -0.069  -1.276  1.00  0.00     0.120 C 
ATOM      5  N   UNL     1      -5.859  -0.255  -0.319  1.00  0.00    -0.330 N 
ATOM      6  C   UNL     1      -5.807   0.406   0.960  1.00  0.00     0.246 C 
ATOM      7  O   UNL     1      -6.867   0.855   1.460  1.00  0.00    -0.272 OA
ATOM      8  C   UNL     1      -4.477   0.618   1.678  1.00  0.00     0.182 C 
ATOM      9  N   UNL     1      -3.381   0.032   0.886  1.00  0.00    -0.273 N 
ATOM     10  C   UNL     1      -2.226  -0.596   1.379  1.00  0.00     0.281 C 
ATOM     11  O   UNL     1      -1.892  -0.607   2.591  1.00  0.00    -0.269 OA
ATOM     12  C   UNL     1      -1.483  -1.249   0.281  1.00  0.00     0.228 C 
ATOM     13  O   UNL     1      -2.316  -1.104  -0.863  1.00  0.00    -0.294 OA
ATOM     14  C   UNL     1      -3.409  -0.246  -0.542  1.00  0.00     0.276 C 
ENDROOT
BRANCH  14  15
ATOM     15  O   UNL     1      -3.264   0.961  -1.260  1.00  0.00    -0.347 OA
ATOM     16  H   UNL     1      -4.099   1.493  -1.132  1.00  0.00     0.216 HD
ENDBRANCH  14  15
BRANCH   8  17
ATOM     17  C   UNL     1      -4.229   2.140   1.949  1.00  0.00     0.015 C 
ATOM     18  C   UNL     1      -4.961   2.602   3.218  1.00  0.00     0.010 C 
ATOM     19  C   UNL     1      -2.743   2.508   2.088  1.00  0.00     0.010 C 
ENDBRANCH   8  17
BRANCH  12  20
ATOM     20  N   UNL     1      -0.212  -0.534   0.082  1.00  0.00    -0.320 N 
ATOM     21  C   UNL     1       0.459  -0.417  -1.192  1.00  0.00     0.227 C 
ATOM     22  H   UNL     1       0.306  -0.277   0.956  1.00  0.00     0.166 HD
ATOM     23  O   UNL     1      -0.215  -0.468  -2.260  1.00  0.00    -0.275 OA
BRANCH  21  24
ATOM     24  C   UNL     1       1.975  -0.381  -1.312  1.00  0.00     0.093 C 
ATOM     25  C   UNL     1       2.430   0.723  -2.288  1.00  0.00     0.098 C 
ATOM     26  C   UNL     1       2.700  -0.217   0.034  1.00  0.00     0.024 C 
ATOM     27  N   UNL     1       3.893   0.653  -2.512  1.00  0.00    -0.302 NA
ATOM     28  C   UNL     1       4.224  -0.203  -0.178  1.00  0.00     0.038 C 
ATOM     29  C   UNL     1       4.266   1.636  -3.552  1.00  0.00     0.105 C 
ATOM     30  C   UNL     1       4.618   0.896  -1.236  1.00  0.00     0.068 C 
ATOM     31  C   UNL     1       5.002  -0.012   1.121  1.00  0.00    -0.034 A 
ATOM     32  C   UNL     1       6.173   0.935  -1.443  1.00  0.00     0.057 C 
ATOM     33  C   UNL     1       4.618  -0.464   2.408  1.00  0.00     0.005 A 
ATOM     34  C   UNL     1       6.266   0.527   1.016  1.00  0.00     0.006 A 
ATOM     35  C   UNL     1       6.856   0.989  -0.111  1.00  0.00    -0.021 A 
ATOM     36  C   UNL     1       5.499  -0.303   3.511  1.00  0.00     0.002 A 
ATOM     37  C   UNL     1       7.129   0.677   2.047  1.00  0.00     0.046 A 
ATOM     38  C   UNL     1       8.122   1.410   0.275  1.00  0.00     0.087 A 
ATOM     39  C   UNL     1       6.777   0.278   3.337  1.00  0.00     0.027 A 
ATOM     40  N   UNL     1       8.279   1.217   1.611  1.00  0.00    -0.361 N 
ATOM     41  H   UNL     1       9.122   1.451   2.179  1.00  0.00     0.166 HD
ENDBRANCH  21  24
ENDBRANCH  12  20
BRANCH  12  42
ATOM     42  C   UNL     1      -1.211  -2.766   0.561  1.00  0.00     0.046 C 
ATOM     43  C   UNL     1      -2.398  -3.495   1.237  1.00  0.00     0.013 C 
ATOM     44  C   UNL     1      -0.800  -3.517  -0.719  1.00  0.00     0.013 C 
ENDBRANCH  12  42
TORSDOF 5
