REMARK SMILES CN1[C@@H]2CC[C@H]1C[C@@H](OC(=O)C(O)c1ccccc1)C2
REMARK SMILES IDX 10 1 11 2 9 3 8 4 6 5 5 6 7 7 2 8 4 9 3 10 1 11 20 12 12 13
REMARK SMILES IDX 13 14 14 16 15 17 19 18 16 19 18 20 17 21
REMARK H PARENT 13 15
REMARK Flexibility Score: inf
ROOT
ATOM      1  C   UNL     1       1.473   0.615  -1.258  1.00  0.00     0.339 C 
ATOM      2  O   UNL     1       1.871   1.805  -1.124  1.00  0.00    -0.249 OA
ENDROOT
BRANCH   1   3
ATOM      3  O   UNL     1       0.106   0.317  -1.255  1.00  0.00    -0.460 OA
BRANCH   3   4
ATOM      4  C   UNL     1      -0.921   1.278  -1.004  1.00  0.00     0.179 C 
ATOM      5  C   UNL     1      -1.857   0.747   1.360  1.00  0.00     0.060 C 
ATOM      6  C   UNL     1      -1.383  -0.711   1.276  1.00  0.00     0.021 C 
ATOM      7  C   UNL     1      -0.938   1.666   0.506  1.00  0.00     0.064 C 
ATOM      8  N   UNL     1      -3.210   0.680   0.804  1.00  0.00    -0.300 NA
ATOM      9  C   UNL     1      -2.160  -1.290   0.081  1.00  0.00     0.021 C 
ATOM     10  C   UNL     1      -3.022  -0.116  -0.409  1.00  0.00     0.060 C 
ATOM     11  C   UNL     1      -3.933   1.954   0.654  1.00  0.00     0.105 C 
ATOM     12  C   UNL     1      -2.273   0.699  -1.501  1.00  0.00     0.064 C 
ENDBRANCH   3   4
ENDBRANCH   1   3
BRANCH   1  13
ATOM     13  C   UNL     1       2.458  -0.516  -1.346  1.00  0.00     0.254 C 
BRANCH  13  14
ATOM     14  O   UNL     1       3.576  -0.188  -2.140  1.00  0.00    -0.377 OA
ATOM     15  H   UNL     1       3.987   0.647  -1.787  1.00  0.00     0.212 HD
ENDBRANCH  13  14
BRANCH  13  16
ATOM     16  C   UNL     1       2.866  -0.972   0.040  1.00  0.00    -0.008 A 
ATOM     17  C   UNL     1       2.319  -2.155   0.577  1.00  0.00     0.007 A 
ATOM     18  C   UNL     1       3.722  -0.191   0.844  1.00  0.00     0.007 A 
ATOM     19  C   UNL     1       2.664  -2.572   1.867  1.00  0.00     0.000 A 
ATOM     20  C   UNL     1       4.066  -0.616   2.132  1.00  0.00     0.000 A 
ATOM     21  C   UNL     1       3.547  -1.810   2.639  1.00  0.00     0.000 A 
ENDBRANCH  13  16
ENDBRANCH   1  13
TORSDOF 5
