REMARK SMILES Nc1ccncc1N
REMARK SMILES IDX 2 1 3 2 4 3 5 4 6 5 7 6 1 7 8 10
REMARK H PARENT 1 8 1 9 8 11 8 12
REMARK Flexibility Score: inf
ROOT
ATOM      1  C   UNL     1      -0.241  -0.610   0.202  1.00  0.00     0.058 A 
ATOM      2  C   UNL     1       0.998  -1.266   0.167  1.00  0.00     0.048 A 
ATOM      3  C   UNL     1       2.141  -0.571  -0.225  1.00  0.00     0.113 A 
ATOM      4  N   UNL     1       2.057   0.738  -0.571  1.00  0.00    -0.262 NA
ATOM      5  C   UNL     1       0.877   1.410  -0.542  1.00  0.00     0.138 A 
ATOM      6  C   UNL     1      -0.303   0.761  -0.146  1.00  0.00     0.073 A 
ENDROOT
BRANCH   1   7
ATOM      7  N   UNL     1      -1.408  -1.359   0.568  1.00  0.00    -0.397 N 
ATOM      8  H   UNL     1      -2.376  -0.993   0.443  1.00  0.00     0.156 HD
ATOM      9  H   UNL     1      -1.318  -2.346   0.896  1.00  0.00     0.156 HD
ENDBRANCH   1   7
BRANCH   6  10
ATOM     10  N   UNL     1      -1.522   1.514  -0.086  1.00  0.00    -0.396 N 
ATOM     11  H   UNL     1      -2.388   1.152   0.365  1.00  0.00     0.156 HD
ATOM     12  H   UNL     1      -1.546   2.502  -0.426  1.00  0.00     0.156 HD
ENDBRANCH   6  10
TORSDOF 2
