REMARK SMILES Oc1ccc([C@H]2COc3cc(O)ccc3C2)cc1
REMARK SMILES IDX 6 1 7 2 8 3 9 4 15 5 16 6 14 7 13 8 11 9 10 10 5 11 2 12
REMARK SMILES IDX 3 13 18 14 4 15 17 16 1 17 12 19
REMARK H PARENT 1 18 12 20
REMARK Flexibility Score: inf
ROOT
ATOM      1  C   UNL     1       0.400   0.628  -0.118  1.00  0.00     0.061 C 
ATOM      2  C   UNL     1       0.058   0.705  -1.616  1.00  0.00     0.238 C 
ATOM      3  O   UNL     1      -1.330   0.991  -1.788  1.00  0.00    -0.493 OA
ATOM      4  C   UNL     1      -2.311   0.454  -0.945  1.00  0.00     0.126 A 
ATOM      5  C   UNL     1      -1.944  -0.226   0.234  1.00  0.00    -0.005 A 
ATOM      6  C   UNL     1      -0.488  -0.428   0.570  1.00  0.00     0.051 C 
ATOM      7  C   UNL     1      -2.942  -0.766   1.059  1.00  0.00     0.011 A 
ATOM      8  C   UNL     1      -4.291  -0.603   0.730  1.00  0.00     0.047 A 
ATOM      9  C   UNL     1      -4.654   0.091  -0.431  1.00  0.00     0.119 A 
ATOM     10  C   UNL     1      -3.663   0.618  -1.266  1.00  0.00     0.092 A 
ENDROOT
BRANCH   1  11
ATOM     11  C   UNL     1       1.874   0.351   0.107  1.00  0.00    -0.041 A 
ATOM     12  C   UNL     1       4.612  -0.142   0.548  1.00  0.00     0.115 A 
ATOM     13  C   UNL     1       3.839  -1.065  -0.162  1.00  0.00     0.046 A 
ATOM     14  C   UNL     1       4.019   1.028   1.040  1.00  0.00     0.046 A 
ATOM     15  C   UNL     1       2.480  -0.823  -0.382  1.00  0.00     0.008 A 
ATOM     16  C   UNL     1       2.660   1.272   0.822  1.00  0.00     0.008 A 
BRANCH  12  17
ATOM     17  O   UNL     1       5.965  -0.396   0.759  1.00  0.00    -0.508 OA
ATOM     18  H   UNL     1       6.552   0.253   1.270  1.00  0.00     0.293 HD
ENDBRANCH  12  17
ENDBRANCH   1  11
BRANCH   9  19
ATOM     19  O   UNL     1      -5.996   0.261  -0.766  1.00  0.00    -0.508 OA
ATOM     20  H   UNL     1      -6.738  -0.109  -0.184  1.00  0.00     0.293 HD
ENDBRANCH   9  19
TORSDOF 3
