REMARK SMILES CNC(=O)c1ccc(-c2cnc3ncc(Cc4ccc5ncccc5c4)n3n2)cc1F
REMARK SMILES IDX 9 1 28 2 27 3 15 4 14 5 13 6 12 7 11 8 10 9 8 10 5 11 30 12
REMARK SMILES IDX 6 13 31 14 29 15 7 16 3 17 1 18 2 19 4 21 16 22 17 23 26 24
REMARK SMILES IDX 18 25 25 26 19 27 20 28 24 29 21 30 23 31 22 32
REMARK H PARENT 2 20
REMARK Flexibility Score: inf
ROOT
ATOM      1  C   UNL     1       1.033   0.151   1.977  1.00  0.00     0.110 A 
ATOM      2  N   UNL     1      -0.041   0.913   1.617  1.00  0.00    -0.163 NA
ATOM      3  N   UNL     1      -1.024   1.094   2.492  1.00  0.00    -0.200 N 
ATOM      4  C   UNL     1      -2.172   1.767   2.366  1.00  0.00     0.069 A 
ATOM      5  C   UNL     1      -2.862   1.609   3.562  1.00  0.00     0.139 A 
ATOM      6  N   UNL     1      -2.135   0.849   4.424  1.00  0.00    -0.218 NA
ATOM      7  C   UNL     1      -1.024   0.565   3.715  1.00  0.00     0.250 A 
ATOM      8  N   UNL     1       0.013  -0.190   4.141  1.00  0.00    -0.217 NA
ATOM      9  C   UNL     1       1.055  -0.404   3.285  1.00  0.00     0.146 A 
ENDROOT
BRANCH   1  10
ATOM     10  C   UNL     1       2.136  -0.061   1.004  1.00  0.00     0.006 A 
ATOM     11  C   UNL     1       4.211  -0.439  -0.881  1.00  0.00     0.075 A 
ATOM     12  C   UNL     1       3.983  -1.393   0.129  1.00  0.00     0.136 A 
ATOM     13  C   UNL     1       3.373   0.685  -0.956  1.00  0.00     0.017 A 
ATOM     14  F   UNL     1       4.709  -2.538   0.185  1.00  0.00    -0.206 F 
ATOM     15  C   UNL     1       2.957  -1.203   1.060  1.00  0.00     0.050 A 
ATOM     16  C   UNL     1       2.349   0.872  -0.025  1.00  0.00     0.011 A 
BRANCH  11  17
ATOM     17  C   UNL     1       5.292  -0.612  -1.879  1.00  0.00     0.253 C 
ATOM     18  C   UNL     1       7.559  -1.524  -2.515  1.00  0.00     0.143 C 
ATOM     19  N   UNL     1       6.542  -1.216  -1.517  1.00  0.00    -0.355 N 
ATOM     20  H   UNL     1       6.763  -1.398  -0.513  1.00  0.00     0.163 HD
ATOM     21  O   UNL     1       5.118  -0.194  -3.056  1.00  0.00    -0.269 OA
ENDBRANCH  11  17
ENDBRANCH   1  10
BRANCH   4  22
ATOM     22  C   UNL     1      -2.640   2.473   1.130  1.00  0.00     0.093 C 
BRANCH  22  23
ATOM     23  C   UNL     1      -3.045   1.471   0.084  1.00  0.00    -0.041 A 
ATOM     24  C   UNL     1      -4.303   0.851   0.155  1.00  0.00     0.014 A 
ATOM     25  C   UNL     1      -2.149   1.108  -0.936  1.00  0.00     0.006 A 
ATOM     26  C   UNL     1      -4.669  -0.113  -0.796  1.00  0.00     0.000 A 
ATOM     27  C   UNL     1      -2.509   0.147  -1.886  1.00  0.00     0.029 A 
ATOM     28  C   UNL     1      -3.764  -0.465  -1.822  1.00  0.00     0.070 A 
ATOM     29  C   UNL     1      -5.919  -0.744  -0.749  1.00  0.00     0.012 A 
ATOM     30  N   UNL     1      -4.115  -1.402  -2.745  1.00  0.00    -0.256 NA
ATOM     31  C   UNL     1      -6.249  -1.701  -1.711  1.00  0.00     0.021 A 
ATOM     32  C   UNL     1      -5.326  -2.019  -2.711  1.00  0.00     0.112 A 
ENDBRANCH  22  23
ENDBRANCH   4  22
TORSDOF 4
