REMARK SMILES NC(=O)c1cccc2cn(-c3ccc([C@@H]4CCCNC4)cc3)nc12
REMARK SMILES IDX 4 1 5 2 6 3 7 4 8 5 9 6 10 7 23 8 24 9 2 10 1 11 3 14 11 15
REMARK SMILES IDX 12 16 22 17 13 18 21 19 14 20 15 21 16 22 20 23 17 24 19 25
REMARK SMILES IDX 18 26
REMARK H PARENT 1 12 1 13 19 27
REMARK Flexibility Score: inf
ROOT
ATOM      1  C   UNL     1      -5.512  -0.342   0.180  1.00  0.00     0.067 A 
ATOM      2  C   UNL     1      -6.612   0.434  -0.260  1.00  0.00     0.016 A 
ATOM      3  C   UNL     1      -6.414   1.689  -0.879  1.00  0.00     0.002 A 
ATOM      4  C   UNL     1      -5.116   2.188  -1.082  1.00  0.00     0.012 A 
ATOM      5  C   UNL     1      -4.052   1.401  -0.656  1.00  0.00     0.021 A 
ATOM      6  C   UNL     1      -2.693   1.582  -0.738  1.00  0.00     0.123 A 
ATOM      7  N   UNL     1      -2.105   0.485  -0.197  1.00  0.00    -0.240 N 
ATOM      8  N   UNL     1      -3.038  -0.368   0.220  1.00  0.00    -0.167 NA
ATOM      9  C   UNL     1      -4.233   0.188  -0.050  1.00  0.00     0.105 A 
ENDROOT
BRANCH   1  10
ATOM     10  C   UNL     1      -5.731  -1.657   0.824  1.00  0.00     0.250 C 
ATOM     11  N   UNL     1      -4.812  -2.179   1.787  1.00  0.00    -0.366 N 
ATOM     12  H   UNL     1      -4.057  -1.587   2.197  1.00  0.00     0.159 HD
ATOM     13  H   UNL     1      -4.954  -3.138   2.176  1.00  0.00     0.159 HD
ATOM     14  O   UNL     1      -6.761  -2.325   0.538  1.00  0.00    -0.269 OA
ENDBRANCH   1  10
BRANCH   7  15
ATOM     15  C   UNL     1      -0.690   0.235  -0.063  1.00  0.00     0.065 A 
ATOM     16  C   UNL     1       0.260   1.017  -0.745  1.00  0.00     0.028 A 
ATOM     17  C   UNL     1      -0.237  -0.815   0.755  1.00  0.00     0.028 A 
ATOM     18  C   UNL     1       1.627   0.760  -0.605  1.00  0.00     0.006 A 
ATOM     19  C   UNL     1       1.129  -1.071   0.896  1.00  0.00     0.006 A 
ATOM     20  C   UNL     1       2.077  -0.288   0.218  1.00  0.00    -0.043 A 
BRANCH  20  21
ATOM     21  C   UNL     1       3.558  -0.579   0.382  1.00  0.00     0.033 C 
ATOM     22  C   UNL     1       4.297   0.612   1.016  1.00  0.00     0.011 C 
ATOM     23  C   UNL     1       4.210  -0.960  -0.964  1.00  0.00     0.089 C 
ATOM     24  C   UNL     1       5.796   0.315   1.121  1.00  0.00     0.016 C 
ATOM     25  N   UNL     1       5.642  -1.254  -0.799  1.00  0.00    -0.316 NA
ATOM     26  C   UNL     1       6.360  -0.096  -0.246  1.00  0.00     0.081 C 
ATOM     27  H   UNL     1       5.751  -2.066  -0.147  1.00  0.00     0.122 HD
ENDBRANCH  20  21
ENDBRANCH   7  15
TORSDOF 3
