REMARK SMILES CC(=O)[C@H]1CC[C@H]2[C@@H]3CC[C@H]4C[C@H](O)CC[C@]4(C)[C@H]3CC[C@]12C
REMARK SMILES IDX 4 1 5 2 6 3 7 4 8 5 9 6 10 7 11 8 12 9 13 10 15 11 16 12
REMARK SMILES IDX 17 13 18 14 19 15 20 16 21 17 22 18 23 19 2 20 1 21 3 22
REMARK SMILES IDX 14 23
REMARK H PARENT 14 24
REMARK Flexibility Score: inf
ROOT
ATOM      1  C   UNL     1       3.653   0.630  -0.687  1.00  0.00     0.062 C 
ATOM      2  C   UNL     1       3.814  -0.664  -1.529  1.00  0.00     0.012 C 
ATOM      3  C   UNL     1       2.419  -1.311  -1.606  1.00  0.00     0.005 C 
ATOM      4  C   UNL     1       1.493  -0.290  -0.957  1.00  0.00    -0.001 C 
ATOM      5  C   UNL     1       0.123  -0.753  -0.419  1.00  0.00    -0.004 C 
ATOM      6  C   UNL     1      -0.681  -1.485  -1.512  1.00  0.00     0.004 C 
ATOM      7  C   UNL     1      -2.093  -1.842  -1.032  1.00  0.00     0.004 C 
ATOM      8  C   UNL     1      -2.838  -0.578  -0.570  1.00  0.00    -0.002 C 
ATOM      9  C   UNL     1      -4.321  -0.871  -0.263  1.00  0.00     0.036 C 
ATOM     10  C   UNL     1      -5.083   0.420   0.075  1.00  0.00     0.114 C 
ATOM     11  C   UNL     1      -4.392   1.196   1.210  1.00  0.00     0.032 C 
ATOM     12  C   UNL     1      -2.900   1.453   0.924  1.00  0.00     0.010 C 
ATOM     13  C   UNL     1      -2.100   0.152   0.605  1.00  0.00    -0.026 C 
ATOM     14  C   UNL     1      -2.029  -0.722   1.895  1.00  0.00     0.012 C 
ATOM     15  C   UNL     1      -0.653   0.513   0.090  1.00  0.00    -0.001 C 
ATOM     16  C   UNL     1       0.196   1.362   1.089  1.00  0.00     0.005 C 
ATOM     17  C   UNL     1       1.618   1.678   0.563  1.00  0.00     0.008 C 
ATOM     18  C   UNL     1       2.353   0.393   0.118  1.00  0.00    -0.020 C 
ATOM     19  C   UNL     1       2.653  -0.514   1.357  1.00  0.00     0.012 C 
ENDROOT
BRANCH   1  20
ATOM     20  C   UNL     1       4.855   1.043   0.150  1.00  0.00     0.133 C 
ATOM     21  C   UNL     1       6.092   0.200   0.274  1.00  0.00     0.088 C 
ATOM     22  O   UNL     1       4.819   2.114   0.736  1.00  0.00    -0.300 OA
ENDBRANCH   1  20
BRANCH  10  23
ATOM     23  O   UNL     1      -5.182   1.223  -1.074  1.00  0.00    -0.393 OA
ATOM     24  H   UNL     1      -5.906   1.880  -0.905  1.00  0.00     0.210 HD
ENDBRANCH  10  23
TORSDOF 2
