REMARK SMILES CCCCOC(=O)c1ccc(N)cc1
REMARK SMILES IDX 5 1 4 2 3 3 2 4 1 5 6 6 7 7 8 8 9 9 14 10 10 11 13 12 11 13
REMARK SMILES IDX 12 14
REMARK H PARENT 12 15 12 16
REMARK Flexibility Score: inf
ROOT
ATOM      1  O   UNL     1      -0.660   1.002   0.234  1.00  0.00    -0.462 OA
ENDROOT
BRANCH   1   2
ATOM      2  C   UNL     1      -2.052   1.150  -0.043  1.00  0.00     0.233 C 
BRANCH   2   3
ATOM      3  C   UNL     1      -2.748  -0.214  -0.034  1.00  0.00     0.041 C 
BRANCH   3   4
ATOM      4  C   UNL     1      -4.254  -0.065  -0.279  1.00  0.00     0.000 C 
ATOM      5  C   UNL     1      -4.950  -1.423  -0.271  1.00  0.00     0.004 C 
ENDBRANCH   3   4
ENDBRANCH   2   3
ENDBRANCH   1   2
BRANCH   1   6
ATOM      6  C   UNL     1       0.269   0.529  -0.703  1.00  0.00     0.338 C 
ATOM      7  O   UNL     1      -0.099   0.264  -1.881  1.00  0.00    -0.246 OA
BRANCH   6   8
ATOM      8  C   UNL     1       1.683   0.349  -0.309  1.00  0.00     0.060 A 
ATOM      9  C   UNL     1       2.634  -0.117  -1.235  1.00  0.00     0.018 A 
ATOM     10  C   UNL     1       2.097   0.642   1.003  1.00  0.00     0.018 A 
ATOM     11  C   UNL     1       3.969  -0.286  -0.856  1.00  0.00     0.026 A 
ATOM     12  C   UNL     1       3.433   0.472   1.379  1.00  0.00     0.026 A 
ATOM     13  C   UNL     1       4.375   0.008   0.452  1.00  0.00     0.031 A 
BRANCH  13  14
ATOM     14  N   UNL     1       5.741  -0.166   0.838  1.00  0.00    -0.399 N 
ATOM     15  H   UNL     1       6.053   0.050   1.811  1.00  0.00     0.156 HD
ATOM     16  H   UNL     1       6.450  -0.512   0.154  1.00  0.00     0.156 HD
ENDBRANCH  13  14
ENDBRANCH   6   8
ENDBRANCH   1   6
TORSDOF 6
