REMARK SMILES CC[C@]12C=CCN3CC[C@@]4(c5cc([C@@]6(C(=O)OC)C[C@@H]7C[C@@H](C(C)(F)F)C[N@](Cc8c6[nH]c6ccccc86)C7)c(OC)cc5N(C)[C@H]4[C@@](O)(C(=O)OC)[C@@H]1OC(C)=O)[C@@H]32
REMARK SMILES IDX 30 1 31 2 32 3 33 4 34 5 35 6 36 7 37 8 38 9 14 11 13 13
REMARK SMILES IDX 3 14 4 15 59 16 54 17 5 18 7 19 10 20 48 21 6 22 8 23 9 24
REMARK SMILES IDX 47 25 11 26 45 27 44 28 12 29 46 30 43 31 40 32 2 33 1 34
REMARK SMILES IDX 55 35 56 36 57 37 58 38 49 39 50 41 51 42 52 43 53 44 41 45
REMARK SMILES IDX 42 46 15 47 16 48 17 49 18 50 29 51 28 52 27 53 39 54 22 55
REMARK SMILES IDX 20 56 21 57 23 58 24 59 25 60 26 61 19 62
REMARK H PARENT 32 10 49 40
REMARK Flexibility Score: 90.00
ROOT
ATOM      1  C   UNL     1       4.925  -1.726   0.259  1.00  0.00    -0.004 A 
ATOM      2  C   UNL     1       3.634  -1.770  -0.324  1.00  0.00     0.043 A 
ATOM      3  N   UNL     1       3.306  -3.065  -0.579  1.00  0.00    -0.357 N 
ATOM      4  C   UNL     1       4.313  -3.825  -0.130  1.00  0.00     0.046 A 
ATOM      5  C   UNL     1       4.387  -5.217  -0.148  1.00  0.00     0.026 A 
ATOM      6  C   UNL     1       5.530  -5.823   0.401  1.00  0.00     0.002 A 
ATOM      7  C   UNL     1       6.561  -5.031   0.949  1.00  0.00     0.001 A 
ATOM      8  C   UNL     1       6.460  -3.629   0.951  1.00  0.00     0.010 A 
ATOM      9  C   UNL     1       5.313  -3.052   0.394  1.00  0.00     0.004 A 
ATOM     10  H   UNL     1       2.422  -3.416  -1.010  1.00  0.00     0.166 HD
ENDROOT
BRANCH   2  11
ATOM     11  C   UNL     1       2.672  -0.633  -0.707  1.00  0.00     0.137 CG0
ATOM     12  G   UNL     1       3.153   0.810  -0.329  1.00  0.00     0.000 G0
BRANCH  11  13
ATOM     13  C   UNL     1       1.224  -0.841  -0.165  1.00  0.00     0.018 A 
ATOM     14  C   UNL     1      -4.002   2.064   0.130  1.00  0.00     0.045 C 
ATOM     15  C   UNL     1      -4.778   2.895  -0.890  1.00  0.00    -0.018 C 
ATOM     16  C   UNL     1      -2.576   1.659  -0.482  1.00  0.00     0.083 C 
ATOM     17  C   UNL     1      -4.866   0.823   0.570  1.00  0.00     0.233 C 
ATOM     18  C   UNL     1      -4.163   3.787  -1.669  1.00  0.00    -0.015 C 
ATOM     19  N   UNL     1      -2.057   2.566  -1.540  1.00  0.00    -0.295 NA
ATOM     20  C   UNL     1      -2.405   0.216  -1.068  1.00  0.00     0.039 C 
ATOM     21  C   UNL     1      -4.904  -0.286  -0.519  1.00  0.00     0.221 C 
ATOM     22  C   UNL     1      -2.676   3.900  -1.629  1.00  0.00     0.112 C 
ATOM     23  C   UNL     1      -2.065   1.864  -2.833  1.00  0.00     0.086 C 
ATOM     24  C   UNL     1      -2.290   0.383  -2.588  1.00  0.00     0.031 C 
ATOM     25  C   UNL     1      -3.467  -0.859  -0.663  1.00  0.00     0.141 C 
ATOM     26  C   UNL     1      -1.157  -0.394  -0.482  1.00  0.00    -0.014 A 
ATOM     27  N   UNL     1      -2.899  -1.520   0.537  1.00  0.00    -0.367 N 
ATOM     28  C   UNL     1      -1.488  -1.311   0.470  1.00  0.00     0.044 A 
ATOM     29  C   UNL     1       0.177  -0.105  -0.778  1.00  0.00     0.015 A 
ATOM     30  C   UNL     1      -3.511  -2.660   1.225  1.00  0.00     0.144 C 
ATOM     31  C   UNL     1      -0.495  -1.979   1.191  1.00  0.00     0.073 A 
ATOM     32  C   UNL     1       0.868  -1.745   0.893  1.00  0.00     0.125 A 
BRANCH  14  33
ATOM     33  C   UNL     1      -3.814   3.002   1.382  1.00  0.00     0.013 C 
ATOM     34  C   UNL     1      -3.272   2.342   2.660  1.00  0.00     0.005 C 
ENDBRANCH  14  33
BRANCH  17  35
ATOM     35  O   UNL     1      -6.193   1.261   0.906  1.00  0.00    -0.458 OA
BRANCH  35  36
ATOM     36  C   UNL     1      -6.816   1.051   2.144  1.00  0.00     0.303 C 
ATOM     37  C   UNL     1      -8.175   1.616   2.378  1.00  0.00     0.139 C 
ATOM     38  O   UNL     1      -6.250   0.384   3.048  1.00  0.00    -0.253 OA
ENDBRANCH  35  36
ENDBRANCH  17  35
BRANCH  21  39
ATOM     39  O   UNL     1      -5.279   0.268  -1.758  1.00  0.00    -0.374 OA
ATOM     40  H   UNL     1      -6.231   0.551  -1.700  1.00  0.00     0.212 HD
ENDBRANCH  21  39
BRANCH  21  41
ATOM     41  C   UNL     1      -5.875  -1.426  -0.238  1.00  0.00     0.344 C 
ATOM     42  O   UNL     1      -6.600  -1.435   0.794  1.00  0.00    -0.249 OA
BRANCH  41  43
ATOM     43  O   UNL     1      -5.977  -2.467  -1.168  1.00  0.00    -0.467 OA
ATOM     44  C   UNL     1      -6.864  -3.565  -0.990  1.00  0.00     0.282 C 
ENDBRANCH  41  43
ENDBRANCH  21  41
BRANCH  32  45
ATOM     45  O   UNL     1       1.866  -2.406   1.626  1.00  0.00    -0.496 OA
ATOM     46  C   UNL     1       1.643  -3.325   2.690  1.00  0.00     0.278 C 
ENDBRANCH  32  45
ENDBRANCH  11  13
BRANCH  11  47
ATOM     47  C   UNL     1       2.631  -0.718  -2.233  1.00  0.00     0.322 C 
ATOM     48  O   UNL     1       3.504  -0.126  -2.930  1.00  0.00    -0.251 OA
BRANCH  47  49
ATOM     49  O   UNL     1       1.682  -1.534  -2.862  1.00  0.00    -0.468 OA
ATOM     50  C   UNL     1       1.583  -1.646  -4.276  1.00  0.00     0.282 C 
ENDBRANCH  47  49
ENDBRANCH  11  47
ENDBRANCH   2  11
BRANCH   1  51
ATOM     51  C   UNL     1       5.782  -0.532   0.621  1.00  0.00     0.122 C 
BRANCH  51  52
ATOM     52  N   UNL     1       5.366   0.146   1.870  1.00  0.00    -0.298 NA
ATOM     53  C   UNL     1       6.020   1.459   2.052  1.00  0.00     0.094 C 
ATOM     54  C   UNL     1       3.917   0.235   2.117  1.00  0.00     0.088 C 
ATOM     55  C   UNL     1       5.394   2.580   1.179  1.00  0.00     0.073 C 
ATOM     56  C   UNL     1       3.205   1.216   1.172  1.00  0.00     0.005 C 
ATOM     57  C   UNL     1       3.850   2.611   1.343  1.00  0.00     0.016 C 
BRANCH  55  58
ATOM     58  C   UNL     1       6.048   3.948   1.517  1.00  0.00     0.249 C 
ATOM     59  C   UNL     1       5.609   5.059   0.561  1.00  0.00     0.087 C 
ATOM     60  F   UNL     1       7.427   3.832   1.420  1.00  0.00    -0.207 F 
ATOM     61  F   UNL     1       5.737   4.323   2.814  1.00  0.00    -0.207 F 
ENDBRANCH  55  58
BRANCH  56  62
ATOM     62  C   UNL     1       3.153   0.810  -0.329  1.00  0.00     0.035 CG0
ATOM     63  G   UNL     1       2.672  -0.633  -0.707  1.00  0.00     0.000 G0
ENDBRANCH  56  62
ENDBRANCH  51  52
ENDBRANCH   1  51
TORSDOF 11
