REMARK SMILES C=C/C=C/C[C@@H](C)[C@@H](O)[C@H]1C(=O)N[C@@H](CC)C(=O)N(C)CC(=O)N(C)[C@@H](CC(C)C)C(=O)N[C@@H](C(C)C)C(=O)N(C)[C@@H](CC(C)C)C(=O)N[C@@H](C)C(=O)N[C@H](C)C(=O)N(C)[C@@H](CC(C)C)C(=O)N(C)[C@@H](CC(C)C)C(=O)N(C)[C@@H](C(C)C)C(=O)N1C
REMARK SMILES IDX 61 1 66 2 67 3 68 4 69 5 70 6 75 7 76 8 77 9 78 10 79 11
REMARK SMILES IDX 83 12 84 13 85 14 86 15 10 16 8 17 9 18 6 20 7 21 5 22 4 23
REMARK SMILES IDX 3 24 2 25 1 26 11 27 13 28 12 29 14 31 17 32 18 33 19 34
REMARK SMILES IDX 20 35 21 36 15 38 16 39 80 40 81 41 82 42 71 43 72 44 73 45
REMARK SMILES IDX 74 46 62 47 63 48 64 49 65 50 59 51 60 52 57 53 58 54 55 55
REMARK SMILES IDX 56 56 54 57 52 58 53 60 50 61 51 62 49 63 47 64 48 66 42 67
REMARK SMILES IDX 43 68 44 69 45 70 46 71 40 72 41 73 38 74 39 75 34 76 33 77
REMARK SMILES IDX 31 78 32 80 26 81 27 82 28 83 29 84 30 85 24 86 25 87 22 88
REMARK SMILES IDX 23 89 35 91 36 92 37 93
REMARK H PARENT 9 19 13 30 54 59 49 65 33 79
REMARK Flexibility Score: 0.00
ROOT
ATOM      1  C   UNL     1      -2.582   5.069  -0.304  1.00  0.00     0.174 C 
ENDROOT
BRANCH   1   2
ATOM      2  C   UNL     1      -3.824   5.092  -1.158  1.00  0.00     0.245 C 
ATOM      3  O   UNL     1      -4.082   6.113  -1.851  1.00  0.00    -0.272 OA
BRANCH   2   4
ATOM      4  N   UNL     1      -4.658   3.927  -1.278  1.00  0.00    -0.332 N 
ATOM      5  C   UNL     1      -4.987   3.452  -2.627  1.00  0.00     0.147 C 
BRANCH   4   6
ATOM      6  C   UNL     1      -5.196   3.252  -0.079  1.00  0.00     0.174 C 
BRANCH   6   7
ATOM      7  C   UNL     1      -4.559   1.871   0.036  1.00  0.00     0.245 C 
ATOM      8  O   UNL     1      -3.300   1.848   0.006  1.00  0.00    -0.272 OA
BRANCH   7   9
ATOM      9  N   UNL     1      -5.266   0.617   0.226  1.00  0.00    -0.332 N 
ATOM     10  C   UNL     1      -6.340   0.516   1.218  1.00  0.00     0.147 C 
BRANCH   9  11
ATOM     11  C   UNL     1      -4.800  -0.629  -0.442  1.00  0.00     0.176 C 
BRANCH  11  12
ATOM     12  C   UNL     1      -3.348  -0.926  -0.095  1.00  0.00     0.246 C 
ATOM     13  O   UNL     1      -2.432  -0.518  -0.862  1.00  0.00    -0.272 OA
BRANCH  12  14
ATOM     14  N   UNL     1      -2.985  -1.490   1.180  1.00  0.00    -0.329 N 
ATOM     15  C   UNL     1      -3.016  -0.578   2.326  1.00  0.00     0.147 C 
BRANCH  14  16
ATOM     16  C   UNL     1      -2.478  -2.877   1.375  1.00  0.00     0.203 C 
BRANCH  16  17
ATOM     17  C   UNL     1      -3.424  -3.665   2.349  1.00  0.00     0.149 C 
BRANCH  17  18
ATOM     18  O   UNL     1      -2.974  -4.977   2.562  1.00  0.00    -0.390 OA
ATOM     19  H   UNL     1      -2.139  -4.917   3.096  1.00  0.00     0.211 HD
ENDBRANCH  17  18
BRANCH  17  20
ATOM     20  C   UNL     1      -4.933  -3.668   1.975  1.00  0.00     0.021 C 
ATOM     21  C   UNL     1      -5.752  -4.301   3.118  1.00  0.00     0.011 C 
BRANCH  20  22
ATOM     22  C   UNL     1      -5.225  -4.381   0.637  1.00  0.00     0.033 C 
BRANCH  22  23
ATOM     23  C   UNL     1      -6.668  -4.254   0.234  1.00  0.00    -0.027 C 
ATOM     24  C   UNL     1      -7.300  -5.237  -0.410  1.00  0.00    -0.005 C 
BRANCH  24  25
ATOM     25  C   UNL     1      -8.699  -5.082  -0.841  1.00  0.00    -0.008 C 
ATOM     26  C   UNL     1      -9.340  -6.063  -1.469  1.00  0.00     0.008 C 
ENDBRANCH  24  25
ENDBRANCH  22  23
ENDBRANCH  20  22
ENDBRANCH  17  20
ENDBRANCH  16  17
BRANCH  16  27
ATOM     27  C   UNL     1      -2.108  -3.626   0.094  1.00  0.00     0.246 C 
ATOM     28  N   UNL     1      -2.004  -5.054   0.079  1.00  0.00    -0.342 N 
ATOM     29  O   UNL     1      -1.697  -3.003  -0.917  1.00  0.00    -0.273 OA
ATOM     30  H   UNL     1      -2.670  -5.572  -0.541  1.00  0.00     0.164 HD
BRANCH  28  31
ATOM     31  C   UNL     1      -0.715  -5.683   0.366  1.00  0.00     0.171 C 
BRANCH  31  32
ATOM     32  C   UNL     1       0.116  -5.701  -0.902  1.00  0.00     0.245 C 
ATOM     33  O   UNL     1      -0.093  -6.619  -1.740  1.00  0.00    -0.272 OA
BRANCH  32  34
ATOM     34  N   UNL     1       1.015  -4.623  -1.250  1.00  0.00    -0.335 N 
ATOM     35  C   UNL     1       1.190  -4.348  -2.685  1.00  0.00     0.147 C 
BRANCH  34  36
ATOM     36  C   UNL     1       2.005  -4.120  -0.278  1.00  0.00     0.219 CG0
ATOM     37  G   UNL     1       2.290  -2.652  -0.482  1.00  0.00     0.000 G0
ENDBRANCH  34  36
ENDBRANCH  32  34
ENDBRANCH  31  32
BRANCH  31  38
ATOM     38  C   UNL     1      -0.937  -7.104   0.925  1.00  0.00     0.032 C 
ATOM     39  C   UNL     1       0.367  -7.748   1.403  1.00  0.00     0.006 C 
ENDBRANCH  31  38
ENDBRANCH  28  31
ENDBRANCH  16  27
ENDBRANCH  14  16
ENDBRANCH  12  14
ENDBRANCH  11  12
BRANCH  11  40
ATOM     40  C   UNL     1      -5.059  -0.561  -1.977  1.00  0.00     0.015 C 
ATOM     41  C   UNL     1      -4.621  -1.851  -2.696  1.00  0.00     0.010 C 
ATOM     42  C   UNL     1      -6.550  -0.330  -2.272  1.00  0.00     0.010 C 
ENDBRANCH  11  40
ENDBRANCH   9  11
ENDBRANCH   7   9
ENDBRANCH   6   7
BRANCH   6  43
ATOM     43  C   UNL     1      -6.744   3.335  -0.056  1.00  0.00     0.038 C 
BRANCH  43  44
ATOM     44  C   UNL     1      -7.292   4.768  -0.288  1.00  0.00    -0.015 C 
ATOM     45  C   UNL     1      -6.971   5.708   0.889  1.00  0.00     0.007 C 
ATOM     46  C   UNL     1      -8.805   4.730  -0.520  1.00  0.00     0.007 C 
ENDBRANCH  43  44
ENDBRANCH   6  43
ENDBRANCH   4   6
ENDBRANCH   2   4
ENDBRANCH   1   2
BRANCH   1  47
ATOM     47  C   UNL     1      -2.482   6.323   0.596  1.00  0.00     0.038 C 
BRANCH  47  48
ATOM     48  C   UNL     1      -1.249   6.327   1.536  1.00  0.00    -0.015 C 
ATOM     49  C   UNL     1      -1.142   7.683   2.246  1.00  0.00     0.007 C 
ATOM     50  C   UNL     1      -1.312   5.198   2.578  1.00  0.00     0.007 C 
ENDBRANCH  47  48
ENDBRANCH   1  47
BRANCH   1  51
ATOM     51  N   UNL     1      -1.395   4.884  -1.154  1.00  0.00    -0.332 N 
ATOM     52  C   UNL     1      -0.851   5.949  -2.005  1.00  0.00     0.147 C 
BRANCH  51  53
ATOM     53  C   UNL     1      -0.864   3.562  -1.313  1.00  0.00     0.245 C 
ATOM     54  O   UNL     1      -1.468   2.732  -2.044  1.00  0.00    -0.272 OA
BRANCH  53  55
ATOM     55  C   UNL     1       0.417   3.177  -0.624  1.00  0.00     0.168 C 
ATOM     56  C   UNL     1       0.210   1.930   0.241  1.00  0.00     0.041 C 
BRANCH  55  57
ATOM     57  N   UNL     1       1.467   2.930  -1.619  1.00  0.00    -0.343 N 
ATOM     58  C   UNL     1       2.882   3.054  -1.379  1.00  0.00     0.242 C 
ATOM     59  H   UNL     1       1.180   2.608  -2.572  1.00  0.00     0.164 HD
ATOM     60  O   UNL     1       3.670   2.849  -2.341  1.00  0.00    -0.273 OA
BRANCH  58  61
ATOM     61  C   UNL     1       3.456   3.459  -0.037  1.00  0.00     0.168 C 
ATOM     62  C   UNL     1       4.101   4.845  -0.114  1.00  0.00     0.041 C 
BRANCH  61  63
ATOM     63  N   UNL     1       4.403   2.456   0.456  1.00  0.00    -0.343 N 
ATOM     64  C   UNL     1       5.703   2.238  -0.101  1.00  0.00     0.243 C 
ATOM     65  H   UNL     1       4.142   1.900   1.305  1.00  0.00     0.164 HD
ATOM     66  O   UNL     1       5.825   1.553  -1.150  1.00  0.00    -0.273 OA
BRANCH  64  67
ATOM     67  C   UNL     1       6.917   2.667   0.679  1.00  0.00     0.174 C 
BRANCH  67  68
ATOM     68  C   UNL     1       8.157   2.937  -0.212  1.00  0.00     0.038 C 
BRANCH  68  69
ATOM     69  C   UNL     1       8.065   4.248  -1.045  1.00  0.00    -0.015 C 
ATOM     70  C   UNL     1       9.459   4.864  -1.232  1.00  0.00     0.007 C 
ATOM     71  C   UNL     1       7.426   4.014  -2.423  1.00  0.00     0.007 C 
ENDBRANCH  68  69
ENDBRANCH  67  68
BRANCH  67  72
ATOM     72  N   UNL     1       7.243   1.664   1.714  1.00  0.00    -0.332 N 
ATOM     73  C   UNL     1       7.630   2.091   3.060  1.00  0.00     0.147 C 
BRANCH  72  74
ATOM     74  C   UNL     1       7.450   0.285   1.363  1.00  0.00     0.245 C 
ATOM     75  O   UNL     1       8.613  -0.109   1.066  1.00  0.00    -0.272 OA
BRANCH  74  76
ATOM     76  C   UNL     1       6.306  -0.702   1.417  1.00  0.00     0.174 C 
BRANCH  76  77
ATOM     77  N   UNL     1       6.571  -1.838   0.533  1.00  0.00    -0.342 N 
ATOM     78  C   UNL     1       5.942  -1.943  -0.742  1.00  0.00     0.243 C 
ATOM     79  H   UNL     1       7.349  -2.502   0.750  1.00  0.00     0.164 HD
ATOM     80  O   UNL     1       6.399  -1.278  -1.712  1.00  0.00    -0.273 OA
BRANCH  78  81
ATOM     81  C   UNL     1       4.784  -2.897  -0.929  1.00  0.00     0.174 C 
BRANCH  81  82
ATOM     82  C   UNL     1       5.048  -3.888  -2.086  1.00  0.00     0.038 C 
BRANCH  82  83
ATOM     83  C   UNL     1       6.221  -4.863  -1.818  1.00  0.00    -0.015 C 
ATOM     84  C   UNL     1       5.931  -5.816  -0.644  1.00  0.00     0.007 C 
ATOM     85  C   UNL     1       6.519  -5.683  -3.080  1.00  0.00     0.007 C 
ENDBRANCH  82  83
ENDBRANCH  81  82
BRANCH  81  86
ATOM     86  N   UNL     1       3.500  -2.186  -1.125  1.00  0.00    -0.332 N 
ATOM     87  C   UNL     1       3.407  -0.989  -1.972  1.00  0.00     0.147 C 
BRANCH  86  88
ATOM     88  C   UNL     1       2.290  -2.652  -0.482  1.00  0.00     0.242 CG0
ATOM     89  O   UNL     1       1.404  -1.820  -0.143  1.00  0.00    -0.273 OA
ATOM     90  G   UNL     1       2.005  -4.120  -0.278  1.00  0.00     0.000 G0
ENDBRANCH  86  88
ENDBRANCH  81  86
ENDBRANCH  78  81
ENDBRANCH  76  77
BRANCH  76  91
ATOM     91  C   UNL     1       5.993  -1.175   2.860  1.00  0.00     0.015 C 
ATOM     92  C   UNL     1       7.197  -1.820   3.567  1.00  0.00     0.010 C 
ATOM     93  C   UNL     1       4.791  -2.129   2.878  1.00  0.00     0.010 C 
ENDBRANCH  76  91
ENDBRANCH  74  76
ENDBRANCH  72  74
ENDBRANCH  67  72
ENDBRANCH  64  67
ENDBRANCH  61  63
ENDBRANCH  58  61
ENDBRANCH  55  57
ENDBRANCH  53  55
ENDBRANCH  51  53
ENDBRANCH   1  51
TORSDOF 17
