REMARK SMILES CNC(=O)c1c(C)oc2cc(Oc3ncnc4cc(OC)c(OC)cc34)ccc12
REMARK SMILES IDX 12 1 11 2 5 3 6 4 29 5 7 6 8 7 9 8 28 9 10 10 27 11 3 12
REMARK SMILES IDX 1 13 2 14 4 16 13 17 14 18 26 19 15 20 17 21 25 22 16 23
REMARK SMILES IDX 18 24 22 25 19 26 23 27 24 28 20 29 21 30
REMARK H PARENT 2 15
REMARK Flexibility Score: inf
ROOT
ATOM      1  O   UNL     1       0.876  -0.262  -0.197  1.00  0.00    -0.438 OA
ENDROOT
BRANCH   1   2
ATOM      2  C   UNL     1      -0.439  -0.486   0.237  1.00  0.00     0.133 A 
ATOM      3  C   UNL     1      -4.385  -1.363   1.135  1.00  0.00     0.088 A 
ATOM      4  C   UNL     1      -4.579  -2.221   0.046  1.00  0.00     0.115 A 
ATOM      5  C   UNL     1      -3.070  -0.952   1.021  1.00  0.00     0.034 A 
ATOM      6  C   UNL     1      -5.824  -2.975  -0.295  1.00  0.00     0.088 C 
ATOM      7  O   UNL     1      -3.478  -2.298  -0.678  1.00  0.00    -0.460 OA
ATOM      8  C   UNL     1      -2.569  -1.547  -0.107  1.00  0.00     0.138 A 
ATOM      9  C   UNL     1      -2.297  -0.085   1.793  1.00  0.00     0.017 A 
ATOM     10  C   UNL     1      -1.260  -1.334  -0.531  1.00  0.00     0.094 A 
ATOM     11  C   UNL     1      -0.970   0.150   1.392  1.00  0.00     0.048 A 
BRANCH   3  12
ATOM     12  C   UNL     1      -5.340  -1.002   2.203  1.00  0.00     0.255 C 
ATOM     13  C   UNL     1      -7.715  -0.680   2.995  1.00  0.00     0.143 C 
ATOM     14  N   UNL     1      -6.741  -0.877   1.928  1.00  0.00    -0.355 N 
ATOM     15  H   UNL     1      -7.080  -0.876   0.941  1.00  0.00     0.163 HD
ATOM     16  O   UNL     1      -4.909  -0.782   3.368  1.00  0.00    -0.269 OA
ENDBRANCH   3  12
ENDBRANCH   1   2
BRANCH   1  17
ATOM     17  C   UNL     1       1.970   0.010   0.638  1.00  0.00     0.230 A 
ATOM     18  N   UNL     1       1.923  -0.297   1.964  1.00  0.00    -0.201 NA
ATOM     19  C   UNL     1       3.144   0.565   0.102  1.00  0.00     0.067 A 
ATOM     20  C   UNL     1       2.979  -0.062   2.784  1.00  0.00     0.226 A 
ATOM     21  C   UNL     1       4.227   0.799   0.971  1.00  0.00     0.081 A 
ATOM     22  C   UNL     1       3.263   0.892  -1.258  1.00  0.00     0.066 A 
ATOM     23  N   UNL     1       4.119   0.482   2.288  1.00  0.00    -0.236 NA
ATOM     24  C   UNL     1       5.412   1.354   0.481  1.00  0.00     0.079 A 
ATOM     25  C   UNL     1       4.457   1.451  -1.754  1.00  0.00     0.161 A 
ATOM     26  C   UNL     1       5.534   1.683  -0.883  1.00  0.00     0.162 A 
BRANCH  25  27
ATOM     27  O   UNL     1       4.613   1.792  -3.108  1.00  0.00    -0.493 OA
ATOM     28  C   UNL     1       3.613   1.616  -4.106  1.00  0.00     0.278 C 
ENDBRANCH  25  27
BRANCH  26  29
ATOM     29  O   UNL     1       6.708   2.242  -1.411  1.00  0.00    -0.493 OA
ATOM     30  C   UNL     1       7.877   2.532  -0.651  1.00  0.00     0.278 C 
ENDBRANCH  26  29
ENDBRANCH   1  17
TORSDOF 5
