REMARK SMILES CCN(C)[C@@H](C)[C@H](O)c1ccccc1
REMARK SMILES IDX 5 1 6 2 3 3 4 4 2 5 1 6 7 7 8 8 9 10 10 11 14 12 11 13 13 14
REMARK SMILES IDX 12 15
REMARK H PARENT 8 9
REMARK Flexibility Score: inf
ROOT
ATOM      1  C   UNL     1      -0.540   0.105   0.082  1.00  0.00     0.086 C 
ATOM      2  C   UNL     1      -0.298   0.251   1.599  1.00  0.00     0.028 C 
ENDROOT
BRANCH   1   3
ATOM      3  N   UNL     1      -1.958  -0.193  -0.266  1.00  0.00    -0.301 NA
ATOM      4  C   UNL     1      -2.450  -1.543   0.065  1.00  0.00     0.105 C 
BRANCH   3   5
ATOM      5  C   UNL     1      -2.918   0.902   0.027  1.00  0.00     0.081 C 
ATOM      6  C   UNL     1      -3.663   0.760   1.365  1.00  0.00     0.021 C 
ENDBRANCH   3   5
ENDBRANCH   1   3
BRANCH   1   7
ATOM      7  C   UNL     1       0.451  -0.877  -0.624  1.00  0.00     0.161 C 
BRANCH   7   8
ATOM      8  O   UNL     1       0.488  -2.161  -0.044  1.00  0.00    -0.387 OA
ATOM      9  H   UNL     1       0.640  -2.072   0.929  1.00  0.00     0.211 HD
ENDBRANCH   7   8
BRANCH   7  10
ATOM     10  C   UNL     1       1.847  -0.286  -0.761  1.00  0.00    -0.018 A 
ATOM     11  C   UNL     1       2.121   0.584  -1.833  1.00  0.00     0.006 A 
ATOM     12  C   UNL     1       2.864  -0.540   0.182  1.00  0.00     0.006 A 
ATOM     13  C   UNL     1       3.384   1.167  -1.971  1.00  0.00     0.000 A 
ATOM     14  C   UNL     1       4.125   0.046   0.039  1.00  0.00     0.000 A 
ATOM     15  C   UNL     1       4.386   0.897  -1.037  1.00  0.00     0.000 A 
ENDBRANCH   7  10
ENDBRANCH   1   7
TORSDOF 5
