REMARK SMILES Cc1cccc(C)c1NC1=NCCCS1
REMARK SMILES IDX 1 1 2 2 3 3 4 4 5 5 6 6 7 7 8 8 9 9 10 10 11 12 15 13 12 14
REMARK SMILES IDX 14 15 13 16
REMARK H PARENT 9 11
REMARK Flexibility Score: inf
ROOT
ATOM      1  C   UNL     1      -2.679   2.106   0.414  1.00  0.00     0.046 C 
ATOM      2  C   UNL     1      -2.490   0.724  -0.149  1.00  0.00    -0.027 A 
ATOM      3  C   UNL     1      -3.464   0.180  -1.001  1.00  0.00     0.005 A 
ATOM      4  C   UNL     1      -3.299  -1.096  -1.538  1.00  0.00     0.001 A 
ATOM      5  C   UNL     1      -2.172  -1.852  -1.217  1.00  0.00     0.005 A 
ATOM      6  C   UNL     1      -1.197  -1.343  -0.345  1.00  0.00    -0.027 A 
ATOM      7  C   UNL     1      -0.007  -2.199   0.000  1.00  0.00     0.046 C 
ATOM      8  C   UNL     1      -1.342  -0.033   0.172  1.00  0.00     0.046 A 
ENDROOT
BRANCH   8   9
ATOM      9  N   UNL     1      -0.343   0.523   1.041  1.00  0.00    -0.335 N 
ATOM     10  C   UNL     1       0.973   0.857   0.586  1.00  0.00     0.161 C 
ATOM     11  H   UNL     1      -0.621   0.799   2.009  1.00  0.00     0.169 HD
ATOM     12  N   UNL     1       1.293   0.733  -0.667  1.00  0.00    -0.262 NA
ATOM     13  S   UNL     1       2.234   1.323   1.777  1.00  0.00    -0.089 SA
ATOM     14  C   UNL     1       2.654   0.980  -1.137  1.00  0.00     0.146 C 
ATOM     15  C   UNL     1       3.338  -0.000   1.170  1.00  0.00     0.080 C 
ATOM     16  C   UNL     1       3.687   0.165  -0.328  1.00  0.00     0.035 C 
ENDBRANCH   8   9
TORSDOF 1
