REMARK SMILES CONC(=O)Nc1ccc(-c2sc3c(c2CN(C)C)c(=O)n(-c2ccc(OC)nn2)c(=O)n3Cc2c(F)cccc2F)cc1
REMARK SMILES IDX 11 1 15 2 14 3 13 4 12 5 33 6 31 7 32 8 22 9 20 10 21 11
REMARK SMILES IDX 10 12 7 13 8 14 44 15 9 16 43 17 6 18 3 19 4 20 5 22 2 24
REMARK SMILES IDX 1 25 16 26 17 27 18 28 19 29 34 30 35 31 36 32 41 33 37 34
REMARK SMILES IDX 38 35 40 36 42 37 39 38 23 39 24 40 30 41 25 42 29 43 26 44
REMARK SMILES IDX 27 45 28 46
REMARK H PARENT 3 21 6 23
REMARK Flexibility Score: inf
ROOT
ATOM      1  C   UNL     1       1.287  -0.265   0.199  1.00  0.00     0.042 A 
ATOM      2  C   UNL     1       0.319   0.597  -0.345  1.00  0.00    -0.000 A 
ATOM      3  C   UNL     1      -1.002   0.208   0.020  1.00  0.00     0.081 A 
ATOM      4  C   UNL     1      -1.037  -0.934   0.805  1.00  0.00     0.113 A 
ATOM      5  S   UNL     1       0.530  -1.485   1.073  1.00  0.00    -0.116 S 
ATOM      6  N   UNL     1      -2.201  -1.486   1.261  1.00  0.00    -0.279 N 
ATOM      7  C   UNL     1      -3.383  -0.854   0.955  1.00  0.00     0.338 A 
ATOM      8  O   UNL     1      -4.471  -1.312   1.407  1.00  0.00    -0.247 OA
ATOM      9  N   UNL     1      -3.395   0.280   0.175  1.00  0.00    -0.209 N 
ATOM     10  C   UNL     1      -2.225   0.810  -0.313  1.00  0.00     0.271 A 
ATOM     11  O   UNL     1      -2.259   1.823  -1.062  1.00  0.00    -0.268 OA
ENDROOT
BRANCH   1  12
ATOM     12  C   UNL     1       2.746  -0.197   0.003  1.00  0.00    -0.008 A 
ATOM     13  C   UNL     1       5.536  -0.095  -0.363  1.00  0.00     0.042 A 
ATOM     14  C   UNL     1       4.801  -1.205  -0.804  1.00  0.00     0.027 A 
ATOM     15  C   UNL     1       4.859   0.974   0.251  1.00  0.00     0.027 A 
ATOM     16  C   UNL     1       3.418  -1.262  -0.611  1.00  0.00     0.012 A 
ATOM     17  C   UNL     1       3.476   0.916   0.444  1.00  0.00     0.012 A 
BRANCH  13  18
ATOM     18  N   UNL     1       6.955  -0.050  -0.597  1.00  0.00    -0.306 N 
ATOM     19  N   UNL     1       9.255   0.749  -0.134  1.00  0.00    -0.217 N 
ATOM     20  C   UNL     1       7.899   0.573   0.286  1.00  0.00     0.343 C 
ATOM     21  H   UNL     1       9.531   0.498  -1.111  1.00  0.00     0.200 HD
ATOM     22  O   UNL     1       7.554   0.933   1.445  1.00  0.00    -0.246 OA
ATOM     23  H   UNL     1       7.334  -0.577  -1.415  1.00  0.00     0.171 HD
BRANCH  19  24
ATOM     24  O   UNL     1      10.166   1.344   0.681  1.00  0.00    -0.276 OA
ATOM     25  C   UNL     1      10.869   0.307   1.317  1.00  0.00     0.231 C 
ENDBRANCH  19  24
ENDBRANCH  13  18
ENDBRANCH   1  12
BRANCH   2  26
ATOM     26  C   UNL     1       0.694   1.764  -1.236  1.00  0.00     0.121 C 
BRANCH  26  27
ATOM     27  N   UNL     1       1.129   2.926  -0.433  1.00  0.00    -0.305 NA
ATOM     28  C   UNL     1       1.886   3.867  -1.274  1.00  0.00     0.105 C 
ATOM     29  C   UNL     1      -0.017   3.620   0.175  1.00  0.00     0.105 C 
ENDBRANCH  26  27
ENDBRANCH   2  26
BRANCH   6  30
ATOM     30  C   UNL     1      -2.208  -2.720   2.075  1.00  0.00     0.170 C 
BRANCH  30  31
ATOM     31  C   UNL     1      -2.820  -3.872   1.310  1.00  0.00     0.043 A 
ATOM     32  C   UNL     1      -2.168  -4.399   0.177  1.00  0.00     0.131 A 
ATOM     33  C   UNL     1      -4.050  -4.433   1.712  1.00  0.00     0.131 A 
ATOM     34  F   UNL     1      -0.979  -3.895  -0.235  1.00  0.00    -0.207 F 
ATOM     35  C   UNL     1      -2.739  -5.456  -0.538  1.00  0.00     0.040 A 
ATOM     36  C   UNL     1      -4.612  -5.490   0.990  1.00  0.00     0.040 A 
ATOM     37  F   UNL     1      -4.708  -3.960   2.801  1.00  0.00    -0.207 F 
ATOM     38  C   UNL     1      -3.959  -6.000  -0.133  1.00  0.00     0.006 A 
ENDBRANCH  30  31
ENDBRANCH   6  30
BRANCH   9  39
ATOM     39  C   UNL     1      -4.656   0.909  -0.140  1.00  0.00     0.166 A 
ATOM     40  C   UNL     1      -4.890   2.253   0.178  1.00  0.00     0.055 A 
ATOM     41  N   UNL     1      -5.647   0.189  -0.733  1.00  0.00    -0.128 NA
ATOM     42  C   UNL     1      -6.123   2.821  -0.131  1.00  0.00     0.074 A 
ATOM     43  N   UNL     1      -6.828   0.735  -1.027  1.00  0.00    -0.110 NA
ATOM     44  C   UNL     1      -7.101   2.039  -0.744  1.00  0.00     0.233 A 
BRANCH  44  45
ATOM     45  O   UNL     1      -8.342   2.601  -1.058  1.00  0.00    -0.480 OA
ATOM     46  C   UNL     1      -9.385   1.862  -1.682  1.00  0.00     0.280 C 
ENDBRANCH  44  45
ENDBRANCH   9  39
TORSDOF 9
