REMARK SMILES CC(=O)OCC(=O)[C@@]12N=C(C)O[C@@H]1C[C@H]1[C@@H]3CCC4=CC(=O)C=C[C@]4(C)[C@H]3[C@@H](O)C[C@@]12C
REMARK SMILES IDX 5 1 6 2 7 3 8 4 13 5 14 6 12 7 15 8 31 9 9 10 10 11 16 12
REMARK SMILES IDX 30 13 32 14 11 15 17 16 27 17 28 18 18 19 25 20 19 21 24 22
REMARK SMILES IDX 26 23 20 24 23 25 21 26 22 27 29 28 4 30 2 31 1 32 3 33
REMARK H PARENT 29 29
REMARK Flexibility Score: inf
ROOT
ATOM      1  C   UNL     1       3.546   2.112   0.790  1.00  0.00     0.311 C 
ENDROOT
BRANCH   1   2
ATOM      2  C   UNL     1       3.190   0.749   1.327  1.00  0.00     0.202 C 
ATOM      3  O   UNL     1       3.666   0.402   2.398  1.00  0.00    -0.293 OA
BRANCH   2   4
ATOM      4  C   UNL     1       2.186  -0.144   0.600  1.00  0.00     0.168 C 
ATOM      5  C   UNL     1       2.221  -1.642   1.054  1.00  0.00     0.211 C 
ATOM      6  C   UNL     1       0.756  -2.097   1.209  1.00  0.00     0.053 C 
ATOM      7  O   UNL     1       2.812  -2.305  -0.052  1.00  0.00    -0.475 OA
ATOM      8  C   UNL     1      -0.037  -1.030   0.463  1.00  0.00     0.005 C 
ATOM      9  C   UNL     1       0.691   0.284   0.786  1.00  0.00     0.010 C 
ATOM     10  N   UNL     1       2.569  -0.218  -0.813  1.00  0.00    -0.236 NA
ATOM     11  C   UNL     1       2.931  -1.418  -1.102  1.00  0.00     0.181 C 
ATOM     12  C   UNL     1      -1.568  -0.954   0.656  1.00  0.00    -0.000 C 
ATOM     13  C   UNL     1       0.177   1.367  -0.198  1.00  0.00     0.042 C 
ATOM     14  C   UNL     1       0.473   0.750   2.266  1.00  0.00     0.015 C 
ATOM     15  C   UNL     1       3.403  -1.813  -2.459  1.00  0.00     0.110 C 
ATOM     16  C   UNL     1      -2.211  -2.322   0.335  1.00  0.00     0.009 C 
ATOM     17  C   UNL     1      -2.131   0.161  -0.300  1.00  0.00     0.035 C 
ATOM     18  C   UNL     1      -1.369   1.528  -0.157  1.00  0.00     0.119 C 
ATOM     19  C   UNL     1      -3.734  -2.263   0.420  1.00  0.00     0.032 C 
ATOM     20  C   UNL     1      -3.708   0.251  -0.275  1.00  0.00     0.013 C 
ATOM     21  C   UNL     1      -4.249  -1.173  -0.485  1.00  0.00    -0.056 C 
ATOM     22  C   UNL     1      -4.184   1.220  -1.359  1.00  0.00    -0.012 C 
ATOM     23  C   UNL     1      -4.273   0.774   1.068  1.00  0.00     0.021 C 
ATOM     24  C   UNL     1      -5.138  -1.476  -1.443  1.00  0.00     0.052 C 
ATOM     25  C   UNL     1      -5.067   0.896  -2.304  1.00  0.00     0.048 C 
ATOM     26  C   UNL     1      -5.607  -0.458  -2.382  1.00  0.00     0.178 C 
ATOM     27  O   UNL     1      -6.468  -0.747  -3.255  1.00  0.00    -0.290 OA
BRANCH  18  28
ATOM     28  O   UNL     1      -1.755   2.205   1.009  1.00  0.00    -0.393 OA
ATOM     29  H   UNL     1      -1.499   3.158   0.892  1.00  0.00     0.210 HD
ENDBRANCH  18  28
ENDBRANCH   2   4
ENDBRANCH   1   2
BRANCH   1  30
ATOM     30  O   UNL     1       4.958   2.310   0.811  1.00  0.00    -0.458 OA
BRANCH  30  31
ATOM     31  C   UNL     1       5.841   1.661  -0.059  1.00  0.00     0.303 C 
ATOM     32  C   UNL     1       7.305   1.918   0.051  1.00  0.00     0.139 C 
ATOM     33  O   UNL     1       5.414   0.869  -0.942  1.00  0.00    -0.253 OA
ENDBRANCH  30  31
ENDBRANCH   1  30
TORSDOF 5
