REMARK SMILES O=C(O)CSc1nnc(Br)n1-c1ccc(C2CC2)c2ccccc12
REMARK SMILES IDX 5 1 4 2 2 3 1 4 3 5 6 7 7 8 11 9 8 10 9 11 10 12 12 13 13 14
REMARK SMILES IDX 24 15 14 16 19 17 23 18 15 19 20 20 22 21 21 22 16 23 17 24
REMARK SMILES IDX 18 25
REMARK H PARENT 3 6
REMARK Flexibility Score: inf
ROOT
ATOM      1  S   UNL     1       2.865  -1.790  -0.713  1.00  0.00    -0.074 SA
ENDROOT
BRANCH   1   2
ATOM      2  C   UNL     1       3.055  -1.103   0.966  1.00  0.00     0.200 C 
BRANCH   2   3
ATOM      3  C   UNL     1       4.416  -0.514   1.143  1.00  0.00     0.313 C 
ATOM      4  O   UNL     1       4.566   0.737   1.161  1.00  0.00    -0.251 OA
BRANCH   3   5
ATOM      5  O   UNL     1       5.522  -1.349   1.261  1.00  0.00    -0.481 OA
ATOM      6  H   UNL     1       6.453  -0.965   1.371  1.00  0.00     0.296 HD
ENDBRANCH   3   5
ENDBRANCH   2   3
ENDBRANCH   1   2
BRANCH   1   7
ATOM      7  C   UNL     1       2.799  -0.189  -1.523  1.00  0.00     0.197 A 
ATOM      8  N   UNL     1       3.871   0.421  -2.063  1.00  0.00    -0.122 NA
ATOM      9  N   UNL     1       1.688   0.555  -1.665  1.00  0.00    -0.264 N 
ATOM     10  N   UNL     1       3.445   1.571  -2.569  1.00  0.00    -0.121 NA
ATOM     11  C   UNL     1       2.122   1.644  -2.327  1.00  0.00     0.205 A 
ATOM     12  Br  UNL     1       1.017   3.097  -2.893  1.00  0.00    -0.005 Br
BRANCH   9  13
ATOM     13  C   UNL     1       0.350   0.236  -1.256  1.00  0.00     0.058 A 
ATOM     14  C   UNL     1      -0.345  -0.758  -1.949  1.00  0.00     0.028 A 
ATOM     15  C   UNL     1      -0.275   0.913  -0.185  1.00  0.00     0.006 A 
ATOM     16  C   UNL     1      -1.648  -1.093  -1.593  1.00  0.00     0.007 A 
ATOM     17  C   UNL     1      -1.611   0.579   0.177  1.00  0.00    -0.013 A 
ATOM     18  C   UNL     1       0.408   1.911   0.540  1.00  0.00     0.011 A 
ATOM     19  C   UNL     1      -2.285  -0.462  -0.514  1.00  0.00    -0.037 A 
ATOM     20  C   UNL     1      -2.235   1.300   1.218  1.00  0.00     0.009 A 
ATOM     21  C   UNL     1      -0.225   2.593   1.578  1.00  0.00     0.001 A 
ATOM     22  C   UNL     1      -1.544   2.295   1.910  1.00  0.00     0.001 A 
BRANCH  19  23
ATOM     23  C   UNL     1      -3.705  -0.862  -0.174  1.00  0.00     0.020 C 
ATOM     24  C   UNL     1      -3.872  -1.525   1.189  1.00  0.00     0.009 C 
ATOM     25  C   UNL     1      -3.973  -2.361  -0.070  1.00  0.00     0.009 C 
ENDBRANCH  19  23
ENDBRANCH   9  13
ENDBRANCH   1   7
TORSDOF 6
