REMARK SMILES CN1[C@@H]2CC[C@H]1C[C@@H](OC(=O)c1c[nH]c3ccccc13)C2
REMARK SMILES IDX 10 1 11 2 9 3 8 4 6 5 5 6 7 7 2 8 4 9 3 10 1 11 21 12 12 13
REMARK SMILES IDX 13 14 20 15 14 16 15 17 19 18 16 20 18 21 17 22
REMARK H PARENT 14 19
REMARK Flexibility Score: inf
ROOT
ATOM      1  C   UNL     1       1.367  -0.223  -0.432  1.00  0.00     0.340 C 
ATOM      2  O   UNL     1       1.445  -1.475  -0.308  1.00  0.00    -0.246 OA
ENDROOT
BRANCH   1   3
ATOM      3  O   UNL     1       0.125   0.396  -0.614  1.00  0.00    -0.459 OA
BRANCH   3   4
ATOM      4  C   UNL     1      -1.116  -0.309  -0.619  1.00  0.00     0.180 C 
ATOM      5  C   UNL     1      -3.647   0.244  -0.741  1.00  0.00     0.060 C 
ATOM      6  C   UNL     1      -4.023   1.108   0.474  1.00  0.00     0.021 C 
ATOM      7  C   UNL     1      -2.217   0.596  -1.240  1.00  0.00     0.064 C 
ATOM      8  N   UNL     1      -3.625  -1.145  -0.263  1.00  0.00    -0.300 NA
ATOM      9  C   UNL     1      -3.576   0.283   1.670  1.00  0.00     0.021 C 
ATOM     10  C   UNL     1      -2.983  -0.992   1.049  1.00  0.00     0.060 C 
ATOM     11  C   UNL     1      -4.974  -1.732  -0.168  1.00  0.00     0.105 C 
ATOM     12  C   UNL     1      -1.456  -0.827   0.811  1.00  0.00     0.064 C 
ENDBRANCH   3   4
ENDBRANCH   1   3
BRANCH   1  13
ATOM     13  C   UNL     1       2.583   0.606  -0.392  1.00  0.00     0.085 A 
ATOM     14  C   UNL     1       2.624   1.992  -0.520  1.00  0.00     0.099 A 
ATOM     15  C   UNL     1       3.900   0.208  -0.222  1.00  0.00     0.014 A 
ATOM     16  N   UNL     1       3.896   2.439  -0.437  1.00  0.00    -0.360 N 
ATOM     17  C   UNL     1       4.663   1.350  -0.256  1.00  0.00     0.046 A 
ATOM     18  C   UNL     1       4.482  -1.050  -0.043  1.00  0.00     0.011 A 
ATOM     19  H   UNL     1       4.215   3.432  -0.500  1.00  0.00     0.166 HD
ATOM     20  C   UNL     1       6.049   1.313  -0.114  1.00  0.00     0.027 A 
ATOM     21  C   UNL     1       5.879  -1.116   0.103  1.00  0.00     0.001 A 
ATOM     22  C   UNL     1       6.659   0.060   0.068  1.00  0.00     0.002 A 
ENDBRANCH   1  13
TORSDOF 3
