REMARK SMILES CC(C)N(CCCCOCC(=O)NS(C)(=O)=O)c1cnc(-c2ccccc2)c(-c2ccccc2)n1
REMARK SMILES IDX 7 1 6 2 5 3 4 4 2 5 1 6 3 7 18 8 35 9 19 10 28 11 20 12
REMARK SMILES IDX 21 13 29 14 30 15 34 16 31 17 33 18 32 19 22 20 23 21 27 22
REMARK SMILES IDX 24 23 26 24 25 25 8 26 9 27 10 28 11 29 12 30 13 31 14 33
REMARK SMILES IDX 15 34 16 35 17 36
REMARK H PARENT 13 32
REMARK Flexibility Score: inf
ROOT
ATOM      1  C   UNL     1       2.501   0.388   1.139  1.00  0.00     0.030 C 
ENDROOT
BRANCH   1   2
ATOM      2  C   UNL     1       1.192  -0.147   0.541  1.00  0.00     0.024 C 
BRANCH   2   3
ATOM      3  C   UNL     1       0.947  -1.632   0.851  1.00  0.00     0.118 C 
BRANCH   3   4
ATOM      4  N   UNL     1      -0.226  -2.119   0.109  1.00  0.00    -0.353 N 
BRANCH   4   5
ATOM      5  C   UNL     1      -0.070  -3.158  -0.928  1.00  0.00     0.077 C 
ATOM      6  C   UNL     1      -1.146  -4.242  -0.802  1.00  0.00     0.031 C 
ATOM      7  C   UNL     1      -0.068  -2.541  -2.330  1.00  0.00     0.031 C 
ENDBRANCH   4   5
BRANCH   4   8
ATOM      8  C   UNL     1      -1.510  -1.524   0.373  1.00  0.00     0.148 A 
ATOM      9  N   UNL     1      -2.168  -0.860  -0.612  1.00  0.00    -0.227 NA
ATOM     10  C   UNL     1      -2.084  -1.591   1.646  1.00  0.00     0.158 A 
ATOM     11  C   UNL     1      -3.363  -0.246  -0.399  1.00  0.00     0.099 A 
ATOM     12  N   UNL     1      -3.268  -0.970   1.876  1.00  0.00    -0.250 NA
ATOM     13  C   UNL     1      -3.924  -0.283   0.901  1.00  0.00     0.097 A 
BRANCH  11  14
ATOM     14  C   UNL     1      -4.024   0.412  -1.547  1.00  0.00     0.002 A 
ATOM     15  C   UNL     1      -5.364   0.127  -1.869  1.00  0.00     0.010 A 
ATOM     16  C   UNL     1      -3.294   1.296  -2.359  1.00  0.00     0.010 A 
ATOM     17  C   UNL     1      -5.970   0.742  -2.969  1.00  0.00     0.001 A 
ATOM     18  C   UNL     1      -3.905   1.909  -3.458  1.00  0.00     0.001 A 
ATOM     19  C   UNL     1      -5.243   1.636  -3.761  1.00  0.00     0.000 A 
ENDBRANCH  11  14
BRANCH  13  20
ATOM     20  C   UNL     1      -5.166   0.435   1.262  1.00  0.00     0.002 A 
ATOM     21  C   UNL     1      -5.332   1.796   0.947  1.00  0.00     0.010 A 
ATOM     22  C   UNL     1      -6.182  -0.235   1.963  1.00  0.00     0.010 A 
ATOM     23  C   UNL     1      -6.509   2.462   1.299  1.00  0.00     0.001 A 
ATOM     24  C   UNL     1      -7.358   0.436   2.313  1.00  0.00     0.001 A 
ATOM     25  C   UNL     1      -7.524   1.780   1.977  1.00  0.00     0.000 A 
ENDBRANCH  13  20
ENDBRANCH   4   8
ENDBRANCH   3   4
ENDBRANCH   2   3
ENDBRANCH   1   2
BRANCH   1  26
ATOM     26  C   UNL     1       3.740  -0.119   0.390  1.00  0.00     0.161 C 
BRANCH  26  27
ATOM     27  O   UNL     1       4.854   0.669   0.754  1.00  0.00    -0.372 OA
BRANCH  27  28
ATOM     28  C   UNL     1       6.012   0.181   0.111  1.00  0.00     0.261 C 
BRANCH  28  29
ATOM     29  C   UNL     1       7.106   1.194   0.238  1.00  0.00     0.259 C 
ATOM     30  O   UNL     1       6.870   2.394  -0.062  1.00  0.00    -0.271 OA
ATOM     31  N   UNL     1       8.419   0.799   0.650  1.00  0.00    -0.251 N 
ATOM     32  H   UNL     1       8.618  -0.203   0.866  1.00  0.00     0.183 HD
BRANCH  31  33
ATOM     33  S   UNL     1       9.702   1.949   0.829  1.00  0.00     0.232 S 
ATOM     34  C   UNL     1       9.359   3.021   2.207  1.00  0.00     0.183 C 
ATOM     35  O   UNL     1       9.838   2.759  -0.429  1.00  0.00    -0.207 OA
ATOM     36  O   UNL     1      10.990   1.216   1.079  1.00  0.00    -0.207 OA
ENDBRANCH  31  33
ENDBRANCH  28  29
ENDBRANCH  27  28
ENDBRANCH  26  27
ENDBRANCH   1  26
TORSDOF 12
