REMARK SMILES Cn1cnc2c(F)c(Nc3ccc(Br)cc3Cl)c(C(=O)NOCCO)cc21
REMARK SMILES IDX 19 1 20 2 21 3 18 5 1 6 2 7 3 8 27 9 4 10 5 11 26 12 6 13
REMARK SMILES IDX 7 14 8 15 9 16 10 18 16 19 11 20 17 21 15 22 12 23 13 24
REMARK SMILES IDX 14 25 22 26 23 27 24 28 25 29
REMARK H PARENT 21 4 9 17 25 30
REMARK Flexibility Score: inf
ROOT
ATOM      1  C   UNL     1       1.111   0.915  -0.509  1.00  0.00     0.277 C 
ATOM      2  O   UNL     1       0.838   1.770  -1.394  1.00  0.00    -0.267 OA
ATOM      3  N   UNL     1       2.208   1.158   0.381  1.00  0.00    -0.231 N 
ATOM      4  H   UNL     1       2.355   0.543   1.214  1.00  0.00     0.199 HD
ENDROOT
BRANCH   1   5
ATOM      5  C   UNL     1       0.317  -0.332  -0.404  1.00  0.00     0.070 A 
ATOM      6  C   UNL     1       1.972  -4.392   0.691  1.00  0.00     0.151 C 
ATOM      7  N   UNL     1       0.617  -3.928   0.412  1.00  0.00    -0.334 N 
ATOM      8  C   UNL     1      -0.515  -4.670   0.376  1.00  0.00     0.200 A 
ATOM      9  C   UNL     1       0.219  -2.689   0.089  1.00  0.00     0.072 A 
ATOM     10  N   UNL     1      -1.617  -3.945   0.050  1.00  0.00    -0.234 NA
ATOM     11  C   UNL     1      -1.124  -2.704  -0.123  1.00  0.00     0.126 A 
ATOM     12  C   UNL     1       0.978  -1.530  -0.042  1.00  0.00     0.045 A 
ATOM     13  C   UNL     1      -1.822  -1.557  -0.482  1.00  0.00     0.175 A 
ATOM     14  F   UNL     1      -3.159  -1.614  -0.706  1.00  0.00    -0.202 F 
ATOM     15  C   UNL     1      -1.099  -0.347  -0.623  1.00  0.00     0.090 A 
BRANCH  15  16
ATOM     16  N   UNL     1      -1.801   0.859  -0.970  1.00  0.00    -0.351 N 
ATOM     17  H   UNL     1      -1.538   1.323  -1.868  1.00  0.00     0.167 HD
BRANCH  16  18
ATOM     18  C   UNL     1      -3.031   1.260  -0.343  1.00  0.00     0.057 A 
ATOM     19  C   UNL     1      -3.202   1.231   1.061  1.00  0.00     0.065 A 
ATOM     20  C   UNL     1      -4.083   1.721  -1.150  1.00  0.00     0.029 A 
ATOM     21  Cl  UNL     1      -1.896   0.790   2.156  1.00  0.00    -0.082 Cl
ATOM     22  C   UNL     1      -4.424   1.621   1.621  1.00  0.00     0.038 A 
ATOM     23  C   UNL     1      -5.298   2.109  -0.581  1.00  0.00     0.018 A 
ATOM     24  C   UNL     1      -5.472   2.053   0.804  1.00  0.00     0.019 A 
ATOM     25  Br  UNL     1      -7.134   2.586   1.580  1.00  0.00    -0.051 Br
ENDBRANCH  16  18
ENDBRANCH  15  16
ENDBRANCH   1   5
BRANCH   3  26
ATOM     26  O   UNL     1       2.988   2.261   0.235  1.00  0.00    -0.271 OA
BRANCH  26  27
ATOM     27  C   UNL     1       4.124   1.856  -0.490  1.00  0.00     0.222 C 
BRANCH  27  28
ATOM     28  C   UNL     1       5.054   3.049  -0.690  1.00  0.00     0.187 C 
BRANCH  28  29
ATOM     29  O   UNL     1       5.471   3.562   0.547  1.00  0.00    -0.394 OA
ATOM     30  H   UNL     1       6.161   2.939   0.895  1.00  0.00     0.210 HD
ENDBRANCH  28  29
ENDBRANCH  27  28
ENDBRANCH  26  27
ENDBRANCH   3  26
TORSDOF 7
