REMARK SMILES Cc1ncc(OC[C@@]2(c3cccc(F)c3)C[C@H]2C(=O)Nc2ccc(F)cn2)c(C)n1
REMARK SMILES IDX 8 1 16 2 17 3 7 4 6 5 5 6 1 7 2 8 3 9 30 10 4 11 28 12 29 13
REMARK SMILES IDX 9 14 10 15 15 16 11 17 13 18 12 19 14 20 18 21 19 22 20 23
REMARK SMILES IDX 21 25 27 26 22 27 26 28 23 29 24 30 25 31
REMARK H PARENT 20 24
REMARK Flexibility Score: inf
ROOT
ATOM      1  C   UNL     1       0.317  -1.195  -0.778  1.00  0.00     0.042 C 
ATOM      2  C   UNL     1       1.541  -1.756  -1.501  1.00  0.00     0.030 C 
ATOM      3  C   UNL     1       1.722  -0.999  -0.187  1.00  0.00     0.094 C 
ENDROOT
BRANCH   1   4
ATOM      4  C   UNL     1      -0.390  -0.029  -1.501  1.00  0.00     0.242 C 
BRANCH   4   5
ATOM      5  O   UNL     1      -1.007   0.846  -0.556  1.00  0.00    -0.489 OA
BRANCH   5   6
ATOM      6  C   UNL     1      -2.202   0.594   0.139  1.00  0.00     0.158 A 
ATOM      7  C   UNL     1      -5.755  -0.131   2.366  1.00  0.00     0.089 C 
ATOM      8  C   UNL     1      -4.501   0.111   1.594  1.00  0.00     0.125 A 
ATOM      9  N   UNL     1      -4.285  -0.549   0.427  1.00  0.00    -0.238 NA
ATOM     10  N   UNL     1      -3.601   1.031   2.027  1.00  0.00    -0.235 NA
ATOM     11  C   UNL     1      -3.163  -0.330  -0.305  1.00  0.00     0.161 A 
ATOM     12  C   UNL     1      -2.464   1.290   1.329  1.00  0.00     0.083 A 
ATOM     13  C   UNL     1      -1.483   2.287   1.864  1.00  0.00     0.071 C 
ENDBRANCH   5   6
ENDBRANCH   4   5
ENDBRANCH   1   4
BRANCH   1  14
ATOM     14  C   UNL     1      -0.539  -2.232  -0.097  1.00  0.00    -0.035 A 
ATOM     15  C   UNL     1      -1.172  -3.233  -0.852  1.00  0.00     0.004 A 
ATOM     16  C   UNL     1      -0.784  -2.153   1.285  1.00  0.00     0.043 A 
ATOM     17  C   UNL     1      -2.022  -4.152  -0.230  1.00  0.00     0.003 A 
ATOM     18  C   UNL     1      -1.637  -3.073   1.903  1.00  0.00     0.123 A 
ATOM     19  C   UNL     1      -2.254  -4.073   1.146  1.00  0.00     0.039 A 
ATOM     20  F   UNL     1      -1.874  -2.988   3.235  1.00  0.00    -0.207 F 
ENDBRANCH   1  14
BRANCH   3  21
ATOM     21  C   UNL     1       2.347   0.360  -0.324  1.00  0.00     0.229 C 
ATOM     22  O   UNL     1       1.812   1.340   0.260  1.00  0.00    -0.274 OA
ATOM     23  N   UNL     1       3.583   0.515  -1.038  1.00  0.00    -0.310 N 
ATOM     24  H   UNL     1       4.078  -0.352  -1.347  1.00  0.00     0.171 HD
BRANCH  23  25
ATOM     25  C   UNL     1       4.172   1.786  -1.362  1.00  0.00     0.132 A 
ATOM     26  N   UNL     1       3.511   2.950  -1.101  1.00  0.00    -0.236 NA
ATOM     27  C   UNL     1       5.432   1.836  -1.977  1.00  0.00     0.050 A 
ATOM     28  C   UNL     1       4.037   4.164  -1.412  1.00  0.00     0.152 A 
ATOM     29  C   UNL     1       5.990   3.073  -2.304  1.00  0.00     0.045 A 
ATOM     30  C   UNL     1       5.291   4.247  -2.021  1.00  0.00     0.141 A 
ATOM     31  F   UNL     1       5.823   5.454  -2.334  1.00  0.00    -0.205 F 
ENDBRANCH  23  25
ENDBRANCH   3  21
TORSDOF 6
