REMARK SMILES C[C@@H]([C@H](O)c1ccccc1)N(C)C
REMARK SMILES IDX 1 1 2 2 3 3 4 4 5 6 6 7 10 8 7 9 9 10 8 11 11 12 12 13 13 14
REMARK H PARENT 4 5
REMARK Flexibility Score: inf
ROOT
ATOM      1  C   UNL     1      -1.292  -1.133   1.611  1.00  0.00     0.028 C 
ATOM      2  C   UNL     1      -1.132   0.295   1.027  1.00  0.00     0.086 C 
ENDROOT
BRANCH   2   3
ATOM      3  C   UNL     1       0.331   0.773   1.280  1.00  0.00     0.161 C 
BRANCH   3   4
ATOM      4  O   UNL     1       0.419   2.171   1.173  1.00  0.00    -0.387 OA
ATOM      5  H   UNL     1       1.300   2.436   1.546  1.00  0.00     0.211 HD
ENDBRANCH   3   4
BRANCH   3   6
ATOM      6  C   UNL     1       1.326   0.099   0.351  1.00  0.00    -0.018 A 
ATOM      7  C   UNL     1       2.006  -1.059   0.771  1.00  0.00     0.006 A 
ATOM      8  C   UNL     1       1.563   0.596  -0.945  1.00  0.00     0.006 A 
ATOM      9  C   UNL     1       2.905  -1.702  -0.085  1.00  0.00     0.000 A 
ATOM     10  C   UNL     1       2.463  -0.051  -1.797  1.00  0.00     0.000 A 
ATOM     11  C   UNL     1       3.133  -1.199  -1.368  1.00  0.00     0.000 A 
ENDBRANCH   3   6
ENDBRANCH   2   3
BRANCH   2  12
ATOM     12  N   UNL     1      -1.496   0.394  -0.426  1.00  0.00    -0.304 NA
ATOM     13  C   UNL     1      -1.908   1.768  -0.780  1.00  0.00     0.105 C 
ATOM     14  C   UNL     1      -2.576  -0.525  -0.841  1.00  0.00     0.105 C 
ENDBRANCH   2  12
TORSDOF 4
