REMARK SMILES COc1c(O[C@@H]2O[C@H](CO)[C@@H](O)[C@H](O)[C@H]2O)cc2c(c1OC)-c1ccc(SC)c(=O)cc1[C@@H](NC(C)=O)CC2
REMARK SMILES IDX 3 1 4 2 17 3 18 4 19 5 20 6 2 7 1 8 5 9 6 10 7 11 15 12 8 13
REMARK SMILES IDX 13 14 11 15 16 16 9 18 10 19 14 21 12 23 21 25 22 26 23 27
REMARK SMILES IDX 32 28 24 29 31 30 25 31 29 32 26 33 30 34 33 35 34 37 35 38
REMARK SMILES IDX 36 40 37 41 27 42 28 43 39 44 38 45
REMARK H PARENT 16 17 10 20 14 22 12 24 34 39
REMARK Flexibility Score: 90.00
ROOT
ATOM      1  C   UNL     1       1.088  -0.498   0.165  1.00  0.00     0.204 A 
ATOM      2  C   UNL     1       1.490   0.103  -1.052  1.00  0.00     0.169 A 
ATOM      3  C   UNL     1       0.523   0.534  -1.956  1.00  0.00     0.055 A 
ATOM      4  C   UNL     1      -0.839   0.326  -1.723  1.00  0.00    -0.032 A 
ATOM      5  C   UNL     1      -1.266  -0.246  -0.516  1.00  0.00     0.031 A 
ATOM      6  C   UNL     1      -0.295  -0.606   0.458  1.00  0.00     0.172 A 
ENDROOT
BRANCH   1   7
ATOM      7  O   UNL     1       2.074  -0.967   1.055  1.00  0.00    -0.490 OA
ATOM      8  C   UNL     1       1.904  -1.978   2.037  1.00  0.00     0.278 C 
ENDBRANCH   1   7
BRANCH   2   9
ATOM      9  O   UNL     1       2.828   0.309  -1.438  1.00  0.00    -0.458 OA
BRANCH   9  10
ATOM     10  C   UNL     1       4.002  -0.146  -0.766  1.00  0.00     0.339 C 
ATOM     11  O   UNL     1       4.176   0.597   0.431  1.00  0.00    -0.332 OA
ATOM     12  C   UNL     1       5.210   0.084  -1.696  1.00  0.00     0.214 C 
ATOM     13  C   UNL     1       5.273   0.089   1.177  1.00  0.00     0.179 C 
ATOM     14  C   UNL     1       6.505  -0.371  -0.998  1.00  0.00     0.180 C 
ATOM     15  C   UNL     1       6.600   0.292   0.395  1.00  0.00     0.177 C 
BRANCH  12  16
ATOM     16  O   UNL     1       5.047  -0.580  -2.927  1.00  0.00    -0.384 OA
ATOM     17  H   UNL     1       4.870  -1.540  -2.739  1.00  0.00     0.211 HD
ENDBRANCH  12  16
BRANCH  13  18
ATOM     18  C   UNL     1       5.310   0.803   2.537  1.00  0.00     0.191 C 
BRANCH  18  19
ATOM     19  O   UNL     1       5.446   2.193   2.376  1.00  0.00    -0.394 OA
ATOM     20  H   UNL     1       4.532   2.552   2.258  1.00  0.00     0.210 HD
ENDBRANCH  18  19
ENDBRANCH  13  18
BRANCH  14  21
ATOM     21  O   UNL     1       7.610  -0.002  -1.792  1.00  0.00    -0.387 OA
ATOM     22  H   UNL     1       8.385  -0.534  -1.463  1.00  0.00     0.211 HD
ENDBRANCH  14  21
BRANCH  15  23
ATOM     23  O   UNL     1       7.700  -0.211   1.115  1.00  0.00    -0.387 OA
ATOM     24  H   UNL     1       7.551  -1.186   1.257  1.00  0.00     0.211 HD
ENDBRANCH  15  23
ENDBRANCH   9  10
ENDBRANCH   2   9
BRANCH   6  25
ATOM     25  O   UNL     1      -0.692  -1.075   1.719  1.00  0.00    -0.492 OA
ATOM     26  C   UNL     1      -1.570  -0.356   2.581  1.00  0.00     0.278 C 
ENDBRANCH   6  25
BRANCH   5  27
ATOM     27  C   UNL     1      -2.687  -0.695  -0.358  1.00  0.00    -0.009 A 
ATOM     28  C   UNL     1      -3.782   0.211  -0.491  1.00  0.00    -0.014 A 
ATOM     29  C   UNL     1      -2.796  -2.089  -0.162  1.00  0.00     0.010 A 
ATOM     30  C   UNL     1      -5.112  -0.065  -0.091  1.00  0.00     0.059 A 
ATOM     31  C   UNL     1      -3.846  -2.844   0.329  1.00  0.00     0.020 A 
ATOM     32  C   UNL     1      -5.698  -1.185   0.506  1.00  0.00     0.192 A 
ATOM     33  C   UNL     1      -5.113  -2.436   0.724  1.00  0.00     0.054 A 
ATOM     34  O   UNL     1      -6.897  -1.037   0.888  1.00  0.00    -0.289 OA
BRANCH  28  35
ATOM     35  C   UNL     1      -3.609   1.679  -0.952  1.00  0.00     0.113 CG0
ATOM     36  G   UNL     1      -2.503   2.074  -1.970  1.00  0.00     0.000 G0
BRANCH  35  37
ATOM     37  N   UNL     1      -3.544   2.559   0.225  1.00  0.00    -0.350 N 
ATOM     38  C   UNL     1      -4.079   3.894   0.227  1.00  0.00     0.217 C 
ATOM     39  H   UNL     1      -2.987   2.241   1.058  1.00  0.00     0.164 HD
ATOM     40  C   UNL     1      -3.827   4.806   1.388  1.00  0.00     0.114 C 
ATOM     41  O   UNL     1      -4.717   4.330  -0.773  1.00  0.00    -0.275 OA
ENDBRANCH  35  37
ENDBRANCH  28  35
BRANCH  33  42
ATOM     42  S   UNL     1      -6.089  -3.682   1.593  1.00  0.00    -0.126 SA
ATOM     43  C   UNL     1      -6.826  -4.365   0.074  1.00  0.00     0.091 C 
ENDBRANCH  33  42
ENDBRANCH   5  27
BRANCH   4  44
ATOM     44  C   UNL     1      -1.845   0.893  -2.677  1.00  0.00     0.039 C 
BRANCH  44  45
ATOM     45  C   UNL     1      -2.503   2.074  -1.970  1.00  0.00     0.034 CG0
ATOM     46  G   UNL     1      -3.609   1.679  -0.952  1.00  0.00     0.000 G0
ENDBRANCH  44  45
ENDBRANCH   4  44
TORSDOF 11
