REMARK SMILES CN1CCCN=C1/C=C/c1cccs1
REMARK SMILES IDX 9 1 8 2 10 3 11 4 14 5 12 6 13 7 7 8 6 9 2 10 5 11 3 12 1 13
REMARK SMILES IDX 4 14
REMARK H PARENT
REMARK Flexibility Score: inf
ROOT
ATOM      1  C   UNL     1       1.361  -0.128   0.674  1.00  0.00     0.023 C 
ATOM      2  C   UNL     1       0.519   0.644  -0.021  1.00  0.00     0.048 C 
ENDROOT
BRANCH   1   3
ATOM      3  C   UNL     1       2.827   0.000   0.593  1.00  0.00     0.027 A 
ATOM      4  C   UNL     1       3.571   0.835  -0.240  1.00  0.00     0.020 A 
ATOM      5  S   UNL     1       3.898  -0.900   1.526  1.00  0.00    -0.144 S 
ATOM      6  C   UNL     1       4.954   0.698  -0.068  1.00  0.00     0.012 A 
ATOM      7  C   UNL     1       5.308  -0.241   0.892  1.00  0.00     0.065 A 
ENDBRANCH   1   3
BRANCH   2   8
ATOM      8  C   UNL     1      -0.944   0.511   0.108  1.00  0.00     0.123 C 
ATOM      9  N   UNL     1      -1.648   1.604   0.184  1.00  0.00    -0.268 NA
ATOM     10  N   UNL     1      -1.607  -0.776   0.041  1.00  0.00    -0.360 N 
ATOM     11  C   UNL     1      -3.102   1.639   0.357  1.00  0.00     0.146 C 
ATOM     12  C   UNL     1      -3.029  -0.849   0.404  1.00  0.00     0.119 C 
ATOM     13  C   UNL     1      -0.960  -1.921  -0.611  1.00  0.00     0.145 C 
ATOM     14  C   UNL     1      -3.763   0.362  -0.165  1.00  0.00     0.045 C 
ENDBRANCH   2   8
TORSDOF 2
