REMARK SMILES Cc1c(Cl)c(C)[n+]([O-])c(Cl)c1-c1noc(-c2cc(O)c(O)c([N+](=O)[O-])c2)n1
REMARK SMILES IDX 16 1 26 2 22 3 20 4 18 5 17 6 15 7 12 8 13 9 27 10 14 11
REMARK SMILES IDX 11 12 1 13 2 14 3 15 9 16 5 17 4 18 10 19 7 20 6 21 8 22
REMARK SMILES IDX 23 23 25 24 24 25 19 26 21 28
REMARK H PARENT 19 27 21 29
REMARK Flexibility Score: inf
ROOT
ATOM      1  C   UNL     1       2.561   0.048   0.060  1.00  0.00     0.051 A 
ATOM      2  C   UNL     1       3.724   0.824  -0.051  1.00  0.00     0.104 A 
ATOM      3  C   UNL     1       4.995   0.222  -0.064  1.00  0.00     0.315 A 
ATOM      4  C   UNL     1       5.093  -1.187  -0.005  1.00  0.00     0.237 A 
ATOM      5  C   UNL     1       3.932  -1.961   0.120  1.00  0.00     0.165 A 
ATOM      6  C   UNL     1       2.674  -1.347   0.155  1.00  0.00     0.064 A 
ENDROOT
BRANCH   1   7
ATOM      7  C   UNL     1       1.235   0.697   0.085  1.00  0.00     0.258 A 
ATOM      8  C   UNL     1      -0.822   1.049   0.171  1.00  0.00     0.210 A 
ATOM      9  N   UNL     1      -0.226   2.251   0.044  1.00  0.00    -0.056 NA
ATOM     10  N   UNL     1       0.067   0.035   0.202  1.00  0.00    -0.186 NA
ATOM     11  O   UNL     1       1.044   1.991  -0.006  1.00  0.00    -0.334 OA
BRANCH   8  12
ATOM     12  C   UNL     1      -2.289   0.860   0.262  1.00  0.00     0.113 A 
ATOM     13  C   UNL     1      -2.191  -0.912  -1.567  1.00  0.00     0.047 C 
ATOM     14  C   UNL     1      -2.952  -0.101  -0.540  1.00  0.00    -0.007 A 
ATOM     15  C   UNL     1      -4.334  -0.316  -0.353  1.00  0.00     0.112 A 
ATOM     16  C   UNL     1      -3.042   1.622   1.178  1.00  0.00     0.298 A 
ATOM     17  C   UNL     1      -5.047   0.483   0.562  1.00  0.00     0.210 A 
ATOM     18  Cl  UNL     1      -5.175  -1.600  -1.238  1.00  0.00    -0.077 Cl
ATOM     19  Cl  UNL     1      -2.258   2.802   2.237  1.00  0.00    -0.009 Cl
ATOM     20  N   UNL     1      -4.386   1.426   1.301  1.00  0.00    -0.157 N 
ATOM     21  C   UNL     1      -6.530   0.264   0.751  1.00  0.00     0.127 C 
ATOM     22  O   UNL     1      -5.079   2.185   2.220  1.00  0.00    -0.617 OA
ENDBRANCH   8  12
ENDBRANCH   1   7
BRANCH   3  23
ATOM     23  N   UNL     1       6.166   1.052  -0.109  1.00  0.00     0.066 N 
ATOM     24  O   UNL     1       7.222   0.800   0.736  1.00  0.00    -0.258 OA
ATOM     25  O   UNL     1       6.151   2.122  -0.751  1.00  0.00    -0.258 OA
ENDBRANCH   3  23
BRANCH   5  26
ATOM     26  O   UNL     1       4.036  -3.349   0.198  1.00  0.00    -0.504 OA
ATOM     27  H   UNL     1       3.217  -3.939   0.286  1.00  0.00     0.293 HD
ENDBRANCH   5  26
BRANCH   4  28
ATOM     28  O   UNL     1       6.320  -1.845  -0.103  1.00  0.00    -0.500 OA
ATOM     29  H   UNL     1       7.183  -1.374  -0.338  1.00  0.00     0.294 HD
ENDBRANCH   4  28
TORSDOF 5
