REMARK SMILES O=C(CN[C@@H]1CCNC1)N1CCC[C@H]1B(O)O
REMARK SMILES IDX 2 1 1 2 10 3 14 4 13 5 12 6 11 7 15 8 16 9 17 11 3 13 4 14
REMARK SMILES IDX 5 16 6 17 9 18 7 19 8 20
REMARK H PARENT 16 10 17 12 4 15 8 21
REMARK Flexibility Score: inf
ROOT
ATOM      1  C   UNL     1      -0.952   0.435   1.065  1.00  0.00     0.236 C 
ATOM      2  O   UNL     1      -1.302   1.206   1.999  1.00  0.00    -0.273 OA
ENDROOT
BRANCH   1   3
ATOM      3  N   UNL     1      -1.838   0.211  -0.049  1.00  0.00    -0.340 N 
ATOM      4  C   UNL     1      -3.149   0.835  -0.167  1.00  0.00     0.117 C 
ATOM      5  C   UNL     1      -3.558   0.632  -1.628  1.00  0.00     0.024 C 
ATOM      6  C   UNL     1      -2.698  -0.519  -2.141  1.00  0.00     0.023 C 
ATOM      7  C   UNL     1      -1.478  -0.560  -1.230  1.00  0.00     0.119 C 
BRANCH   4   8
ATOM      8  B   UNL     1      -4.184   0.140   0.844  1.00  0.00     0.475 B 
BRANCH   8   9
ATOM      9  O   UNL     1      -4.424  -1.300   0.775  1.00  0.00    -0.426 OA
ATOM     10  H   UNL     1      -3.752  -1.695   1.386  1.00  0.00     0.189 HD
ENDBRANCH   8   9
BRANCH   8  11
ATOM     11  O   UNL     1      -4.893   0.948   1.833  1.00  0.00    -0.426 OA
ATOM     12  H   UNL     1      -4.305   0.939   2.630  1.00  0.00     0.189 HD
ENDBRANCH   8  11
ENDBRANCH   4   8
ENDBRANCH   1   3
BRANCH   1  13
ATOM     13  C   UNL     1       0.404  -0.205   1.124  1.00  0.00     0.182 C 
BRANCH  13  14
ATOM     14  N   UNL     1       1.308   0.464   0.182  1.00  0.00    -0.304 NA
ATOM     15  H   UNL     1       1.495   1.435   0.528  1.00  0.00     0.123 HD
BRANCH  14  16
ATOM     16  C   UNL     1       2.578  -0.270   0.037  1.00  0.00     0.069 C 
ATOM     17  C   UNL     1       3.475  -0.170   1.257  1.00  0.00     0.035 C 
ATOM     18  C   UNL     1       3.428   0.319  -1.079  1.00  0.00     0.099 C 
ATOM     19  C   UNL     1       4.877  -0.285   0.687  1.00  0.00     0.082 C 
ATOM     20  N   UNL     1       4.835   0.122  -0.721  1.00  0.00    -0.315 NA
ATOM     21  H   UNL     1       5.338   1.035  -0.822  1.00  0.00     0.122 HD
ENDBRANCH  14  16
ENDBRANCH  13  14
ENDBRANCH   1  13
TORSDOF 7
