REMARK SMILES CCOc1ccc(Cc2cc([C@]34OC[C@](CO)(O3)[C@@H](O)[C@H](O)[C@H]4O)ccc2Cl)cc1
REMARK SMILES IDX 9 1 10 2 11 3 25 4 26 5 27 6 28 7 8 8 7 9 4 10 5 11 30 12
REMARK SMILES IDX 6 13 29 14 3 15 2 16 1 17 12 18 13 19 18 20 23 21 14 22
REMARK SMILES IDX 15 23 21 24 19 25 24 26 16 28 17 29 22 31 20 33
REMARK H PARENT 24 27 17 30 22 32 20 34
REMARK Flexibility Score: inf
ROOT
ATOM      1  C   UNL     1       0.917   1.620   2.036  1.00  0.00    -0.024 A 
ATOM      2  C   UNL     1      -0.212   0.996   1.478  1.00  0.00     0.015 A 
ATOM      3  C   UNL     1      -1.151   1.717   0.718  1.00  0.00     0.014 A 
ATOM      4  C   UNL     1      -0.915   3.088   0.490  1.00  0.00     0.011 A 
ATOM      5  C   UNL     1       0.202   3.718   1.041  1.00  0.00     0.021 A 
ATOM      6  C   UNL     1       1.120   2.998   1.810  1.00  0.00     0.044 A 
ATOM      7  Cl  UNL     1       2.507   3.863   2.463  1.00  0.00    -0.084 Cl
ENDROOT
BRANCH   1   8
ATOM      8  C   UNL     1       1.910   0.779   2.804  1.00  0.00     0.072 C 
BRANCH   8   9
ATOM      9  C   UNL     1       2.888   0.128   1.861  1.00  0.00    -0.043 A 
ATOM     10  C   UNL     1       4.679  -1.048   0.027  1.00  0.00     0.119 A 
ATOM     11  C   UNL     1       5.010   0.146   0.677  1.00  0.00     0.047 A 
ATOM     12  C   UNL     1       3.441  -1.659   0.306  1.00  0.00     0.047 A 
ATOM     13  C   UNL     1       4.123   0.734   1.584  1.00  0.00     0.008 A 
ATOM     14  C   UNL     1       2.554  -1.072   1.213  1.00  0.00     0.008 A 
BRANCH  10  15
ATOM     15  O   UNL     1       5.609  -1.589  -0.876  1.00  0.00    -0.494 OA
BRANCH  15  16
ATOM     16  C   UNL     1       5.393  -2.731  -1.706  1.00  0.00     0.226 C 
ATOM     17  C   UNL     1       4.489  -2.382  -2.883  1.00  0.00     0.049 C 
ENDBRANCH  15  16
ENDBRANCH  10  15
ENDBRANCH   8   9
ENDBRANCH   1   8
BRANCH   3  18
ATOM     18  C   UNL     1      -2.313   0.957   0.086  1.00  0.00     0.225 C 
ATOM     19  O   UNL     1      -2.848   0.054   1.039  1.00  0.00    -0.340 OA
ATOM     20  O   UNL     1      -1.816   0.220  -1.008  1.00  0.00    -0.329 OA
ATOM     21  C   UNL     1      -3.473   1.853  -0.448  1.00  0.00     0.210 C 
ATOM     22  C   UNL     1      -3.006  -1.154   0.347  1.00  0.00     0.205 C 
ATOM     23  C   UNL     1      -2.739  -0.818  -1.114  1.00  0.00     0.147 C 
ATOM     24  C   UNL     1      -4.596   0.962  -1.049  1.00  0.00     0.180 C 
ATOM     25  C   UNL     1      -3.993  -0.231  -1.845  1.00  0.00     0.182 C 
BRANCH  21  26
ATOM     26  O   UNL     1      -3.990   2.637   0.597  1.00  0.00    -0.384 OA
ATOM     27  H   UNL     1      -4.426   3.424   0.178  1.00  0.00     0.211 HD
ENDBRANCH  21  26
BRANCH  23  28
ATOM     28  C   UNL     1      -2.101  -1.989  -1.889  1.00  0.00     0.197 C 
BRANCH  28  29
ATOM     29  O   UNL     1      -2.952  -3.104  -1.926  1.00  0.00    -0.393 OA
ATOM     30  H   UNL     1      -2.824  -3.593  -1.072  1.00  0.00     0.210 HD
ENDBRANCH  28  29
ENDBRANCH  23  28
BRANCH  24  31
ATOM     31  O   UNL     1      -5.416   1.720  -1.901  1.00  0.00    -0.387 OA
ATOM     32  H   UNL     1      -6.028   2.244  -1.321  1.00  0.00     0.211 HD
ENDBRANCH  24  31
BRANCH  25  33
ATOM     33  O   UNL     1      -4.967  -1.209  -2.123  1.00  0.00    -0.387 OA
ATOM     34  H   UNL     1      -5.366  -1.503  -1.265  1.00  0.00     0.211 HD
ENDBRANCH  25  33
ENDBRANCH   3  18
TORSDOF 10
