REMARK SMILES CC[C@@H](C)[C@H]1C(=O)N2CCC[C@H]2[C@]2(O)O[C@](NC(=O)[C@@H]3C[C@@H]4c5cccc6[nH]cc(c56)C[C@H]4N(C)C3)(C(C)C)C(=O)N12
REMARK SMILES IDX 12 1 11 2 10 3 9 4 8 5 6 6 7 7 5 8 42 9 40 10 41 11 16 12
REMARK SMILES IDX 15 13 13 14 14 15 3 17 4 18 2 19 1 20 17 21 18 22 19 24
REMARK SMILES IDX 20 25 36 26 21 27 34 28 22 29 35 30 33 31 23 32 32 33 24 34
REMARK SMILES IDX 31 35 30 36 25 37 27 38 29 39 26 40 28 41 37 43 38 44 39 45
REMARK H PARENT 14 16 17 23 28 42
REMARK Flexibility Score: inf
ROOT
ATOM      1  C   UNL     1      -4.674  -0.654  -2.247  1.00  0.00     0.168 C 
ATOM      2  C   UNL     1      -5.107   0.070  -3.524  1.00  0.00     0.035 C 
ATOM      3  C   UNL     1      -6.624  -0.106  -3.591  1.00  0.00     0.024 C 
ATOM      4  C   UNL     1      -7.080  -0.404  -2.164  1.00  0.00     0.120 C 
ATOM      5  N   UNL     1      -5.874  -0.772  -1.446  1.00  0.00    -0.330 N 
ATOM      6  C   UNL     1      -5.830  -1.101  -0.053  1.00  0.00     0.246 C 
ATOM      7  O   UNL     1      -6.899  -1.361   0.562  1.00  0.00    -0.272 OA
ATOM      8  C   UNL     1      -4.500  -1.169   0.673  1.00  0.00     0.183 C 
ATOM      9  N   UNL     1      -3.406  -0.649  -0.174  1.00  0.00    -0.273 N 
ATOM     10  C   UNL     1      -2.093  -1.136  -0.187  1.00  0.00     0.281 C 
ATOM     11  O   UNL     1      -1.664  -2.017   0.606  1.00  0.00    -0.269 OA
ATOM     12  C   UNL     1      -1.349  -0.594  -1.348  1.00  0.00     0.228 C 
ATOM     13  O   UNL     1      -2.343   0.003  -2.172  1.00  0.00    -0.294 OA
ATOM     14  C   UNL     1      -3.572   0.054  -1.442  1.00  0.00     0.276 C 
ENDROOT
BRANCH  14  15
ATOM     15  O   UNL     1      -3.928   1.391  -1.200  1.00  0.00    -0.347 OA
ATOM     16  H   UNL     1      -3.131   1.835  -0.809  1.00  0.00     0.216 HD
ENDBRANCH  14  15
BRANCH   8  17
ATOM     17  C   UNL     1      -4.559  -0.436   2.046  1.00  0.00     0.018 C 
ATOM     18  C   UNL     1      -4.779   1.080   1.887  1.00  0.00     0.010 C 
BRANCH  17  19
ATOM     19  C   UNL     1      -3.303  -0.730   2.900  1.00  0.00     0.002 C 
ATOM     20  C   UNL     1      -3.475  -0.330   4.367  1.00  0.00     0.004 C 
ENDBRANCH  17  19
ENDBRANCH   8  17
BRANCH  12  21
ATOM     21  N   UNL     1      -0.404   0.455  -0.924  1.00  0.00    -0.320 N 
ATOM     22  C   UNL     1       0.584   0.281   0.104  1.00  0.00     0.227 C 
ATOM     23  H   UNL     1      -0.264   1.256  -1.579  1.00  0.00     0.166 HD
ATOM     24  O   UNL     1       0.264  -0.231   1.212  1.00  0.00    -0.275 OA
BRANCH  22  25
ATOM     25  C   UNL     1       1.981   0.813  -0.100  1.00  0.00     0.093 C 
ATOM     26  C   UNL     1       2.083   2.258   0.430  1.00  0.00     0.098 C 
ATOM     27  C   UNL     1       3.024  -0.100   0.574  1.00  0.00     0.024 C 
ATOM     28  N   UNL     1       3.444   2.819   0.279  1.00  0.00    -0.302 NA
ATOM     29  C   UNL     1       4.442   0.477   0.428  1.00  0.00     0.038 C 
ATOM     30  C   UNL     1       3.757   3.146  -1.125  1.00  0.00     0.105 C 
ATOM     31  C   UNL     1       4.450   1.961   0.956  1.00  0.00     0.068 C 
ATOM     32  C   UNL     1       5.489  -0.356   1.168  1.00  0.00    -0.034 A 
ATOM     33  C   UNL     1       5.874   2.596   0.971  1.00  0.00     0.057 C 
ATOM     34  C   UNL     1       5.518  -1.770   1.258  1.00  0.00     0.005 A 
ATOM     35  C   UNL     1       6.582   0.312   1.688  1.00  0.00     0.006 A 
ATOM     36  C   UNL     1       6.806   1.651   1.664  1.00  0.00    -0.021 A 
ATOM     37  C   UNL     1       6.603  -2.420   1.903  1.00  0.00     0.002 A 
ATOM     38  C   UNL     1       7.635  -0.290   2.293  1.00  0.00     0.046 A 
ATOM     39  C   UNL     1       8.049   1.835   2.259  1.00  0.00     0.087 A 
ATOM     40  C   UNL     1       7.683  -1.676   2.430  1.00  0.00     0.027 A 
ATOM     41  N   UNL     1       8.550   0.632   2.656  1.00  0.00    -0.361 N 
ATOM     42  H   UNL     1       9.467   0.462   3.122  1.00  0.00     0.166 HD
ENDBRANCH  22  25
ENDBRANCH  12  21
BRANCH  12  43
ATOM     43  C   UNL     1      -0.603  -1.713  -2.141  1.00  0.00     0.046 C 
ATOM     44  C   UNL     1       0.202  -1.134  -3.317  1.00  0.00     0.013 C 
ATOM     45  C   UNL     1      -1.559  -2.797  -2.671  1.00  0.00     0.013 C 
ENDBRANCH  12  43
TORSDOF 6
