REMARK SMILES C#C[C@]1(O)CC[C@H]2[C@@H]3CCC4=CC(=O)CCC4=C3C=C[C@@]21CC
REMARK SMILES IDX 7 1 6 2 5 3 3 4 21 5 20 6 19 7 18 8 17 9 16 10 15 11 13 12
REMARK SMILES IDX 14 13 12 14 11 15 10 16 9 17 8 18 22 19 23 20 4 21 2 23 1 24
REMARK H PARENT 4 22
REMARK Flexibility Score: inf
ROOT
ATOM      1  C   UNL     1      -1.053  -0.850   0.486  1.00  0.00     0.010 C 
ATOM      2  C   UNL     1      -1.921  -2.094   0.662  1.00  0.00     0.009 C 
ATOM      3  C   UNL     1      -3.310  -1.543   1.047  1.00  0.00     0.050 C 
ATOM      4  C   UNL     1      -3.210   0.007   1.004  1.00  0.00     0.134 C 
ATOM      5  C   UNL     1      -2.032   0.250   0.010  1.00  0.00     0.032 C 
ATOM      6  C   UNL     1      -1.334   1.588   0.152  1.00  0.00    -0.016 C 
ATOM      7  C   UNL     1      -0.012   1.706  -0.069  1.00  0.00     0.001 C 
ATOM      8  C   UNL     1       0.875   0.505  -0.275  1.00  0.00    -0.041 C 
ATOM      9  C   UNL     1       2.225   0.631  -0.261  1.00  0.00    -0.041 C 
ATOM     10  C   UNL     1       2.922   1.971  -0.417  1.00  0.00     0.044 C 
ATOM     11  C   UNL     1       4.309   1.812  -1.053  1.00  0.00     0.085 C 
ATOM     12  C   UNL     1       5.087   0.711  -0.397  1.00  0.00     0.156 C 
ATOM     13  O   UNL     1       6.344   0.770  -0.349  1.00  0.00    -0.295 OA
ATOM     14  C   UNL     1       4.391  -0.474   0.125  1.00  0.00     0.051 C 
ATOM     15  C   UNL     1       3.051  -0.534   0.150  1.00  0.00    -0.041 C 
ATOM     16  C   UNL     1       2.355  -1.705   0.780  1.00  0.00     0.036 C 
ATOM     17  C   UNL     1       1.151  -2.086  -0.071  1.00  0.00     0.013 C 
ATOM     18  C   UNL     1       0.214  -0.886  -0.387  1.00  0.00     0.024 C 
ENDROOT
BRANCH   5  19
ATOM     19  C   UNL     1      -2.525   0.032  -1.490  1.00  0.00     0.012 C 
ATOM     20  C   UNL     1      -1.877   0.911  -2.573  1.00  0.00     0.005 C 
ENDBRANCH   5  19
BRANCH   4  21
ATOM     21  O   UNL     1      -4.408   0.595   0.557  1.00  0.00    -0.377 OA
ATOM     22  H   UNL     1      -5.143   0.260   1.137  1.00  0.00     0.212 HD
ENDBRANCH   4  21
BRANCH   4  23
ATOM     23  C   UNL     1      -2.910   0.533   2.362  1.00  0.00    -0.071 C 
ATOM     24  C   UNL     1      -2.666   0.959   3.463  1.00  0.00     0.007 C 
ENDBRANCH   4  23
TORSDOF 3
