REMARK SMILES CC(CCc1ccc(O)cc1)NCC(O)c1ccc(O)cc1
REMARK SMILES IDX 1 1 2 2 3 3 4 4 5 5 6 6 11 7 7 8 10 9 8 10 9 11 12 13 13 15
REMARK SMILES IDX 14 16 15 17 16 19 17 20 22 21 18 22 21 23 19 24 20 25
REMARK H PARENT 9 12 12 14 15 18 20 26
REMARK Flexibility Score: inf
ROOT
ATOM      1  C   UNL     1       0.942  -3.688  -0.308  1.00  0.00     0.024 C 
ATOM      2  C   UNL     1       0.412  -2.264  -0.058  1.00  0.00     0.051 C 
ENDROOT
BRANCH   2   3
ATOM      3  C   UNL     1       1.564  -1.234  -0.143  1.00  0.00     0.023 C 
BRANCH   3   4
ATOM      4  C   UNL     1       2.470  -1.253   1.097  1.00  0.00     0.037 C 
BRANCH   4   5
ATOM      5  C   UNL     1       3.506  -0.164   1.010  1.00  0.00    -0.048 A 
ATOM      6  C   UNL     1       3.233   1.117   1.517  1.00  0.00     0.007 A 
ATOM      7  C   UNL     1       4.732  -0.403   0.367  1.00  0.00     0.007 A 
ATOM      8  C   UNL     1       4.182   2.137   1.405  1.00  0.00     0.046 A 
ATOM      9  C   UNL     1       5.680   0.619   0.256  1.00  0.00     0.046 A 
ATOM     10  C   UNL     1       5.410   1.890   0.775  1.00  0.00     0.115 A 
BRANCH  10  11
ATOM     11  O   UNL     1       6.364   2.898   0.657  1.00  0.00    -0.508 OA
ATOM     12  H   UNL     1       6.198   3.829   1.023  1.00  0.00     0.293 HD
ENDBRANCH  10  11
ENDBRANCH   4   5
ENDBRANCH   3   4
ENDBRANCH   2   3
BRANCH   2  13
ATOM     13  N   UNL     1      -0.621  -1.921  -1.059  1.00  0.00    -0.311 NA
ATOM     14  H   UNL     1      -1.140  -2.784  -1.349  1.00  0.00     0.123 HD
BRANCH  13  15
ATOM     15  C   UNL     1      -1.620  -0.992  -0.510  1.00  0.00     0.117 C 
BRANCH  15  16
ATOM     16  C   UNL     1      -2.493  -0.425  -1.646  1.00  0.00     0.158 C 
BRANCH  16  17
ATOM     17  O   UNL     1      -1.715   0.232  -2.617  1.00  0.00    -0.387 OA
ATOM     18  H   UNL     1      -1.122   0.879  -2.155  1.00  0.00     0.211 HD
ENDBRANCH  16  17
BRANCH  16  19
ATOM     19  C   UNL     1      -3.569   0.498  -1.108  1.00  0.00    -0.018 A 
ATOM     20  C   UNL     1      -4.923   0.129  -1.196  1.00  0.00     0.010 A 
ATOM     21  C   UNL     1      -3.235   1.724  -0.501  1.00  0.00     0.010 A 
ATOM     22  C   UNL     1      -5.921   0.971  -0.697  1.00  0.00     0.046 A 
ATOM     23  C   UNL     1      -4.236   2.563  -0.002  1.00  0.00     0.046 A 
ATOM     24  C   UNL     1      -5.582   2.189  -0.100  1.00  0.00     0.115 A 
BRANCH  24  25
ATOM     25  O   UNL     1      -6.587   3.017   0.393  1.00  0.00    -0.508 OA
ATOM     26  H   UNL     1      -6.374   3.907   0.830  1.00  0.00     0.293 HD
ENDBRANCH  24  25
ENDBRANCH  16  19
ENDBRANCH  15  16
ENDBRANCH  13  15
ENDBRANCH   2  13
TORSDOF 10
