REMARK SMILES CCn1c(=O)c2c(nc(/C=C/c3ccc(OC)c(OC)c3)n2C)n(CC)c1=O
REMARK SMILES IDX 10 1 11 2 9 3 8 4 22 5 7 6 6 7 23 8 24 9 4 10 27 11 5 12
REMARK SMILES IDX 3 13 28 14 25 15 26 16 2 17 1 18 12 19 21 20 13 21 18 22
REMARK SMILES IDX 14 23 15 24 19 25 20 26 16 27 17 28
REMARK H PARENT
REMARK Flexibility Score: inf
ROOT
ATOM      1  C   UNL     1      -0.860   0.366  -0.170  1.00  0.00     0.048 C 
ATOM      2  C   UNL     1      -1.604  -0.637   0.316  1.00  0.00     0.012 C 
ENDROOT
BRANCH   1   3
ATOM      3  C   UNL     1       0.618   0.351  -0.086  1.00  0.00     0.135 A 
ATOM      4  N   UNL     1       1.313  -0.720   0.382  1.00  0.00    -0.211 NA
ATOM      5  N   UNL     1       1.424   1.372  -0.498  1.00  0.00    -0.322 N 
ATOM      6  C   UNL     1       2.595  -0.342   0.231  1.00  0.00     0.168 A 
ATOM      7  C   UNL     1       2.671   0.897  -0.308  1.00  0.00     0.152 A 
ATOM      8  C   UNL     1       1.030   2.648  -1.099  1.00  0.00     0.152 C 
ATOM      9  N   UNL     1       3.699  -1.078   0.534  1.00  0.00    -0.276 N 
ATOM     10  C   UNL     1       3.912   1.453  -0.607  1.00  0.00     0.282 A 
ATOM     11  C   UNL     1       4.934  -0.538   0.246  1.00  0.00     0.332 A 
ATOM     12  O   UNL     1       3.994   2.601  -1.123  1.00  0.00    -0.267 OA
ATOM     13  N   UNL     1       5.043   0.717  -0.332  1.00  0.00    -0.259 N 
ATOM     14  O   UNL     1       5.979  -1.199   0.510  1.00  0.00    -0.247 OA
BRANCH   9  15
ATOM     15  C   UNL     1       3.562  -2.431   1.099  1.00  0.00     0.126 C 
ATOM     16  C   UNL     1       3.493  -3.468  -0.016  1.00  0.00     0.028 C 
ENDBRANCH   9  15
BRANCH  13  17
ATOM     17  C   UNL     1       6.375   1.287  -0.613  1.00  0.00     0.127 C 
ATOM     18  C   UNL     1       6.888   2.063   0.595  1.00  0.00     0.028 C 
ENDBRANCH  13  17
ENDBRANCH   1   3
BRANCH   2  19
ATOM     19  C   UNL     1      -3.085  -0.675   0.236  1.00  0.00    -0.022 A 
ATOM     20  C   UNL     1      -3.867   0.491   0.130  1.00  0.00     0.058 A 
ATOM     21  C   UNL     1      -3.728  -1.918   0.309  1.00  0.00     0.012 A 
ATOM     22  C   UNL     1      -5.272   0.412   0.066  1.00  0.00     0.161 A 
ATOM     23  C   UNL     1      -5.120  -2.004   0.246  1.00  0.00     0.051 A 
ATOM     24  C   UNL     1      -5.901  -0.841   0.120  1.00  0.00     0.160 A 
BRANCH  22  25
ATOM     25  O   UNL     1      -6.079   1.555  -0.047  1.00  0.00    -0.493 OA
ATOM     26  C   UNL     1      -5.587   2.890  -0.118  1.00  0.00     0.278 C 
ENDBRANCH  22  25
BRANCH  24  27
ATOM     27  O   UNL     1      -7.302  -0.889   0.051  1.00  0.00    -0.493 OA
ATOM     28  C   UNL     1      -8.072  -2.086   0.095  1.00  0.00     0.278 C 
ENDBRANCH  24  27
ENDBRANCH   2  19
TORSDOF 6
