REMARK SMILES CC#CC(=O)N1CCC[C@H]1c1nc(-c2ccc(C(=O)Nc3ccccn3)cc2)c2c(N)nccn12
REMARK SMILES IDX 11 1 12 2 13 3 29 4 35 5 34 6 33 7 32 8 30 9 10 10 6 11 7 12
REMARK SMILES IDX 8 13 9 14 4 15 5 16 3 17 1 18 2 19 14 20 15 21 28 22 16 23
REMARK SMILES IDX 27 24 17 25 18 26 19 27 20 28 21 30 22 31 26 32 23 33 25 34
REMARK SMILES IDX 24 35 31 36
REMARK H PARENT 20 29 31 37 31 38
REMARK Flexibility Score: inf
ROOT
ATOM      1  C   UNL     1       2.474  -0.432  -0.596  1.00  0.00     0.137 A 
ATOM      2  N   UNL     1       1.307   0.171  -0.918  1.00  0.00    -0.230 NA
ATOM      3  C   UNL     1       0.470  -0.111   0.108  1.00  0.00     0.100 A 
ATOM      4  C   UNL     1       1.149  -0.877   1.046  1.00  0.00     0.116 A 
ATOM      5  N   UNL     1       2.395  -1.084   0.587  1.00  0.00    -0.297 N 
ATOM      6  C   UNL     1       3.311  -1.834   1.254  1.00  0.00     0.113 A 
ATOM      7  C   UNL     1       2.927  -2.407   2.470  1.00  0.00     0.132 A 
ATOM      8  N   UNL     1       1.676  -2.171   2.963  1.00  0.00    -0.236 NA
ATOM      9  C   UNL     1       0.767  -1.405   2.293  1.00  0.00     0.150 A 
ENDROOT
BRANCH   1  10
ATOM     10  C   UNL     1       3.686  -0.367  -1.495  1.00  0.00     0.153 C 
ATOM     11  N   UNL     1       4.865   0.113  -0.786  1.00  0.00    -0.322 N 
ATOM     12  C   UNL     1       6.033  -0.724  -1.009  1.00  0.00     0.121 C 
ATOM     13  C   UNL     1       5.592  -1.814  -1.982  1.00  0.00     0.024 C 
ATOM     14  C   UNL     1       4.067  -1.735  -2.065  1.00  0.00     0.035 C 
BRANCH  11  15
ATOM     15  C   UNL     1       4.925   1.384  -0.112  1.00  0.00     0.299 C 
ATOM     16  O   UNL     1       3.940   2.169  -0.150  1.00  0.00    -0.259 OA
BRANCH  15  17
ATOM     17  C   UNL     1       6.099   1.779   0.617  1.00  0.00    -0.005 C 
ATOM     18  C   UNL     1       8.262   2.516   1.994  1.00  0.00     0.108 C 
ATOM     19  C   UNL     1       7.079   2.111   1.237  1.00  0.00    -0.096 C 
ENDBRANCH  15  17
ENDBRANCH  11  15
ENDBRANCH   1  10
BRANCH   3  20
ATOM     20  C   UNL     1      -0.955   0.247   0.077  1.00  0.00     0.003 A 
ATOM     21  C   UNL     1      -1.338   1.586  -0.080  1.00  0.00     0.011 A 
ATOM     22  C   UNL     1      -1.939  -0.750   0.130  1.00  0.00     0.011 A 
ATOM     23  C   UNL     1      -2.691   1.931  -0.134  1.00  0.00     0.014 A 
ATOM     24  C   UNL     1      -3.292  -0.407   0.063  1.00  0.00     0.014 A 
ATOM     25  C   UNL     1      -3.687   0.940  -0.051  1.00  0.00     0.040 A 
BRANCH  25  26
ATOM     26  C   UNL     1      -5.121   1.322  -0.120  1.00  0.00     0.256 C 
ATOM     27  O   UNL     1      -5.431   2.475  -0.527  1.00  0.00    -0.269 OA
ATOM     28  N   UNL     1      -6.153   0.414   0.309  1.00  0.00    -0.307 N 
ATOM     29  H   UNL     1      -5.898  -0.363   0.960  1.00  0.00     0.171 HD
BRANCH  28  30
ATOM     30  C   UNL     1      -7.531   0.533  -0.086  1.00  0.00     0.132 A 
ATOM     31  C   UNL     1      -8.482  -0.363   0.421  1.00  0.00     0.047 A 
ATOM     32  N   UNL     1      -7.923   1.495  -0.968  1.00  0.00    -0.239 NA
ATOM     33  C   UNL     1      -9.814  -0.252   0.019  1.00  0.00     0.005 A 
ATOM     34  C   UNL     1      -9.215   1.620  -1.371  1.00  0.00     0.113 A 
ATOM     35  C   UNL     1     -10.187   0.745  -0.882  1.00  0.00     0.020 A 
ENDBRANCH  28  30
ENDBRANCH  25  26
ENDBRANCH   3  20
BRANCH   9  36
ATOM     36  N   UNL     1      -0.485  -1.107   2.914  1.00  0.00    -0.382 N 
ATOM     37  H   UNL     1      -0.752  -1.597   3.796  1.00  0.00     0.158 HD
ATOM     38  H   UNL     1      -1.058  -0.284   2.629  1.00  0.00     0.158 HD
ENDBRANCH   9  36
TORSDOF 7
