REMARK SMILES C#Cc1cccc(Nc2ncnc3cc4c(cc23)OCCOCCOCCO4)c1
REMARK SMILES IDX 9 1 10 2 11 3 12 4 13 5 14 6 15 7 16 8 17 9 18 10 8 11 7 13
REMARK SMILES IDX 3 14 4 15 29 16 5 17 6 18 2 19 1 20 19 21 20 22 21 23 22 24
REMARK SMILES IDX 23 25 28 27 27 28 26 29 25 30 24 31
REMARK H PARENT 8 12
REMARK Flexibility Score: 70.00
ROOT
ATOM      1  C   UNL     1       2.155   0.492  -0.412  1.00  0.00     0.141 A 
ATOM      2  N   UNL     1       2.926   0.253  -1.508  1.00  0.00    -0.219 NA
ATOM      3  C   UNL     1       2.469  -0.490  -2.550  1.00  0.00     0.224 A 
ATOM      4  N   UNL     1       1.218  -1.017  -2.516  1.00  0.00    -0.236 NA
ATOM      5  C   UNL     1       0.401  -0.810  -1.450  1.00  0.00     0.080 A 
ATOM      6  C   UNL     1      -0.870  -1.381  -1.431  1.00  0.00     0.079 A 
ATOM      7  C   UNL     1      -1.719  -1.203  -0.321  1.00  0.00     0.163 A 
ATOM      8  C   UNL     1      -1.286  -0.403   0.760  1.00  0.00     0.162 A 
ATOM      9  C   UNL     1      -0.001   0.149   0.746  1.00  0.00     0.064 A 
ATOM     10  C   UNL     1       0.849  -0.038  -0.357  1.00  0.00     0.047 A 
ENDROOT
BRANCH   1  11
ATOM     11  N   UNL     1       2.672   1.316   0.645  1.00  0.00    -0.340 N 
ATOM     12  H   UNL     1       2.057   2.072   1.018  1.00  0.00     0.168 HD
BRANCH  11  13
ATOM     13  C   UNL     1       4.029   1.243   1.121  1.00  0.00     0.041 A 
ATOM     14  C   UNL     1       6.126   0.036   1.426  1.00  0.00     0.026 A 
ATOM     15  C   UNL     1       6.651   1.126   2.131  1.00  0.00     0.017 A 
ATOM     16  C   UNL     1       4.814   0.089   0.933  1.00  0.00     0.043 A 
ATOM     17  C   UNL     1       5.867   2.264   2.342  1.00  0.00     0.003 A 
ATOM     18  C   UNL     1       4.566   2.325   1.838  1.00  0.00     0.026 A 
BRANCH  14  19
ATOM     19  C   UNL     1       6.932  -1.140   1.213  1.00  0.00    -0.070 C 
ATOM     20  C   UNL     1       7.611  -2.119   1.029  1.00  0.00     0.010 C 
ENDBRANCH  14  19
ENDBRANCH  11  13
ENDBRANCH   1  11
BRANCH   8  21
ATOM     21  O   UNL     1      -2.079  -0.160   1.892  1.00  0.00    -0.487 OA
BRANCH  21  22
ATOM     22  C   UNL     1      -3.458   0.220   1.882  1.00  0.00     0.258 C 
BRANCH  22  23
ATOM     23  C   UNL     1      -3.653   1.591   1.227  1.00  0.00     0.201 C 
BRANCH  23  24
ATOM     24  O   UNL     1      -3.552   1.497  -0.186  1.00  0.00    -0.376 OA
BRANCH  24  25
ATOM     25  C   UNL     1      -4.817   1.479  -0.830  1.00  0.00     0.188 CG0
ATOM     26  G   UNL     1      -5.095   0.101  -1.422  1.00  0.00     0.000 G0
ENDBRANCH  24  25
ENDBRANCH  23  24
ENDBRANCH  22  23
ENDBRANCH  21  22
ENDBRANCH   8  21
BRANCH   7  27
ATOM     27  O   UNL     1      -2.967  -1.841  -0.239  1.00  0.00    -0.487 OA
BRANCH  27  28
ATOM     28  C   UNL     1      -3.597  -2.595  -1.274  1.00  0.00     0.258 C 
BRANCH  28  29
ATOM     29  C   UNL     1      -4.058  -1.707  -2.452  1.00  0.00     0.201 C 
BRANCH  29  30
ATOM     30  O   UNL     1      -3.963  -0.327  -2.153  1.00  0.00    -0.376 OA
BRANCH  30  31
ATOM     31  C   UNL     1      -5.095   0.101  -1.422  1.00  0.00     0.188 CG0
ATOM     32  G   UNL     1      -4.817   1.479  -0.830  1.00  0.00     0.000 G0
ENDBRANCH  30  31
ENDBRANCH  29  30
ENDBRANCH  28  29
ENDBRANCH  27  28
ENDBRANCH   7  27
TORSDOF 3
