REMARK SMILES COC(=O)N[C@@H](C)CNc1nccc(-c2cn(C(C)C)nc2-c2cc(Cl)cc(NS(C)(=O)=O)c2F)n1
REMARK SMILES IDX 10 1 11 2 12 3 13 4 14 5 36 6 9 7 8 9 6 10 7 11 5 12 3 13
REMARK SMILES IDX 4 14 2 16 1 17 15 18 16 19 22 20 17 21 21 22 23 23 24 24
REMARK SMILES IDX 34 25 25 26 28 27 35 28 26 29 27 30 29 31 30 33 31 34 32 35
REMARK SMILES IDX 33 36 18 37 19 38 20 39
REMARK H PARENT 9 8 5 15 29 32
REMARK Flexibility Score: inf
ROOT
ATOM      1  C   UNL     1       1.796   0.449  -0.428  1.00  0.00     0.223 A 
ATOM      2  N   UNL     1       2.850   0.244  -1.266  1.00  0.00    -0.222 NA
ATOM      3  C   UNL     1       2.747  -0.601  -2.327  1.00  0.00     0.117 A 
ATOM      4  C   UNL     1       1.548  -1.275  -2.570  1.00  0.00     0.049 A 
ATOM      5  C   UNL     1       0.460  -1.043  -1.708  1.00  0.00     0.080 A 
ATOM      6  N   UNL     1       0.619  -0.183  -0.665  1.00  0.00    -0.213 NA
ENDROOT
BRANCH   1   7
ATOM      7  N   UNL     1       1.914   1.320   0.703  1.00  0.00    -0.352 N 
ATOM      8  H   UNL     1       1.049   1.565   1.239  1.00  0.00     0.163 HD
BRANCH   7   9
ATOM      9  C   UNL     1       3.188   1.899   1.128  1.00  0.00     0.140 C 
BRANCH   9  10
ATOM     10  C   UNL     1       4.075   0.832   1.796  1.00  0.00     0.101 C 
ATOM     11  C   UNL     1       3.431   0.318   3.092  1.00  0.00     0.033 C 
BRANCH  10  12
ATOM     12  N   UNL     1       5.400   1.395   2.077  1.00  0.00    -0.317 N 
ATOM     13  C   UNL     1       6.381   1.615   1.049  1.00  0.00     0.407 C 
ATOM     14  O   UNL     1       6.137   1.307  -0.153  1.00  0.00    -0.225 OA
ATOM     15  H   UNL     1       5.670   1.616   3.061  1.00  0.00     0.167 HD
BRANCH  13  16
ATOM     16  O   UNL     1       7.608   2.178   1.395  1.00  0.00    -0.453 OA
ATOM     17  C   UNL     1       8.622   2.457   0.444  1.00  0.00     0.284 C 
ENDBRANCH  13  16
ENDBRANCH  10  12
ENDBRANCH   9  10
ENDBRANCH   7   9
ENDBRANCH   1   7
BRANCH   5  18
ATOM     18  C   UNL     1      -0.856  -1.697  -1.918  1.00  0.00     0.047 A 
ATOM     19  C   UNL     1      -1.238  -2.518  -2.970  1.00  0.00     0.120 A 
ATOM     20  C   UNL     1      -2.018  -1.544  -1.158  1.00  0.00     0.105 A 
ATOM     21  N   UNL     1      -2.544  -2.821  -2.817  1.00  0.00    -0.269 N 
ATOM     22  N   UNL     1      -3.027  -2.222  -1.734  1.00  0.00    -0.172 NA
BRANCH  20  23
ATOM     23  C   UNL     1      -2.195  -0.715   0.047  1.00  0.00     0.042 A 
ATOM     24  C   UNL     1      -1.494  -1.019   1.222  1.00  0.00     0.034 A 
ATOM     25  C   UNL     1      -3.039   0.407   0.009  1.00  0.00     0.156 A 
ATOM     26  C   UNL     1      -1.608  -0.190   2.338  1.00  0.00     0.044 A 
ATOM     27  C   UNL     1      -3.159   1.250   1.130  1.00  0.00     0.086 A 
ATOM     28  F   UNL     1      -3.721   0.692  -1.131  1.00  0.00    -0.204 F 
ATOM     29  Cl  UNL     1      -0.681  -0.545   3.784  1.00  0.00    -0.084 Cl
ATOM     30  C   UNL     1      -2.430   0.940   2.294  1.00  0.00     0.050 A 
BRANCH  27  31
ATOM     31  N   UNL     1      -3.998   2.420   1.049  1.00  0.00    -0.281 N 
ATOM     32  H   UNL     1      -4.444   2.666   0.135  1.00  0.00     0.180 HD
BRANCH  31  33
ATOM     33  S   UNL     1      -4.400   3.441   2.397  1.00  0.00     0.229 S 
ATOM     34  C   UNL     1      -5.322   2.528   3.613  1.00  0.00     0.183 C 
ATOM     35  O   UNL     1      -3.151   4.018   3.001  1.00  0.00    -0.207 OA
ATOM     36  O   UNL     1      -5.257   4.570   1.903  1.00  0.00    -0.207 OA
ENDBRANCH  31  33
ENDBRANCH  27  31
ENDBRANCH  20  23
BRANCH  21  37
ATOM     37  C   UNL     1      -3.344  -3.641  -3.733  1.00  0.00     0.101 C 
ATOM     38  C   UNL     1      -4.362  -2.767  -4.469  1.00  0.00     0.033 C 
ATOM     39  C   UNL     1      -4.040  -4.771  -2.966  1.00  0.00     0.033 C 
ENDBRANCH  21  37
ENDBRANCH   5  18
TORSDOF 10
