REMARK SMILES C1=C/COCc2cc(ccc2OCCN2CCCC2)Nc2nccc(n2)-c2cccc(c2)COC/1
REMARK SMILES IDX 20 1 8 3 11 4 10 5 6 6 9 7 7 8 12 9 13 10 14 11 15 12 16 13
REMARK SMILES IDX 19 14 17 15 18 16 5 17 4 18 3 19 2 20 1 21 21 23 22 24 26 25
REMARK SMILES IDX 23 26 25 27 24 28 27 29 32 30 28 31 31 32 29 33 30 34 33 35
REMARK SMILES IDX 34 36 35 37
REMARK H PARENT 20 2
REMARK Flexibility Score: 70.00
ROOT
ATOM      1  N   UNL     1      -1.032  -3.639  -0.894  1.00  0.00    -0.324 N 
ATOM      2  H   UNL     1      -0.684  -4.553  -1.266  1.00  0.00     0.170 HD
ENDROOT
BRANCH   1   3
ATOM      3  C   UNL     1      -0.060  -2.622  -0.595  1.00  0.00     0.042 A 
ATOM      4  C   UNL     1       1.964  -0.771   0.080  1.00  0.00     0.125 A 
ATOM      5  C   UNL     1       2.184  -1.745  -0.912  1.00  0.00     0.049 A 
ATOM      6  C   UNL     1       0.730  -0.745   0.757  1.00  0.00     0.022 A 
ATOM      7  C   UNL     1       1.186  -2.663  -1.235  1.00  0.00     0.030 A 
ATOM      8  C   UNL     1      -0.284  -1.656   0.403  1.00  0.00     0.036 A 
BRANCH   4   9
ATOM      9  O   UNL     1       2.941   0.180   0.416  1.00  0.00    -0.492 OA
BRANCH   9  10
ATOM     10  C   UNL     1       4.258   0.217  -0.127  1.00  0.00     0.245 C 
BRANCH  10  11
ATOM     11  C   UNL     1       5.009   1.423   0.461  1.00  0.00     0.126 C 
BRANCH  11  12
ATOM     12  N   UNL     1       6.461   1.448   0.165  1.00  0.00    -0.300 NA
ATOM     13  C   UNL     1       6.778   1.430  -1.268  1.00  0.00     0.084 C 
ATOM     14  C   UNL     1       7.206   0.342   0.787  1.00  0.00     0.084 C 
ATOM     15  C   UNL     1       7.234   0.025  -1.624  1.00  0.00     0.017 C 
ATOM     16  C   UNL     1       7.691  -0.592  -0.316  1.00  0.00     0.017 C 
ENDBRANCH  11  12
ENDBRANCH  10  11
ENDBRANCH   9  10
ENDBRANCH   4   9
BRANCH   6  17
ATOM     17  C   UNL     1       0.483   0.276   1.835  1.00  0.00     0.200 C 
BRANCH  17  18
ATOM     18  O   UNL     1       0.320   1.543   1.228  1.00  0.00    -0.373 OA
BRANCH  18  19
ATOM     19  C   UNL     1      -0.436   2.406   2.053  1.00  0.00     0.188 C 
BRANCH  19  20
ATOM     20  C   UNL     1      -1.902   2.167   1.828  1.00  0.00    -0.001 C 
ATOM     21  C   UNL     1      -2.824   3.104   2.086  1.00  0.00    -0.001 CG0
ATOM     22  G   UNL     1      -4.275   2.869   1.754  1.00  0.00     0.000 G0
ENDBRANCH  19  20
ENDBRANCH  18  19
ENDBRANCH  17  18
ENDBRANCH   6  17
ENDBRANCH   1   3
BRANCH   1  23
ATOM     23  C   UNL     1      -2.443  -3.521  -0.672  1.00  0.00     0.227 A 
ATOM     24  N   UNL     1      -3.164  -4.636  -0.387  1.00  0.00    -0.221 NA
ATOM     25  N   UNL     1      -3.079  -2.326  -0.821  1.00  0.00    -0.213 NA
ATOM     26  C   UNL     1      -4.505  -4.575  -0.204  1.00  0.00     0.117 A 
ATOM     27  C   UNL     1      -4.431  -2.213  -0.673  1.00  0.00     0.076 A 
ATOM     28  C   UNL     1      -5.171  -3.359  -0.335  1.00  0.00     0.049 A 
BRANCH  27  29
ATOM     29  C   UNL     1      -5.088  -0.889  -0.867  1.00  0.00     0.001 A 
ATOM     30  C   UNL     1      -4.349   0.296  -0.693  1.00  0.00     0.016 A 
ATOM     31  C   UNL     1      -6.445  -0.790  -1.239  1.00  0.00     0.010 A 
ATOM     32  C   UNL     1      -4.961   1.553  -0.839  1.00  0.00    -0.022 A 
ATOM     33  C   UNL     1      -7.051   0.458  -1.394  1.00  0.00     0.001 A 
ATOM     34  C   UNL     1      -6.317   1.626  -1.185  1.00  0.00     0.006 A 
BRANCH  32  35
ATOM     35  C   UNL     1      -4.181   2.820  -0.594  1.00  0.00     0.196 C 
BRANCH  35  36
ATOM     36  O   UNL     1      -4.647   3.518   0.550  1.00  0.00    -0.373 OA
BRANCH  36  37
ATOM     37  C   UNL     1      -4.275   2.869   1.754  1.00  0.00     0.188 CG0
ATOM     38  G   UNL     1      -2.824   3.104   2.086  1.00  0.00     0.000 G0
ENDBRANCH  36  37
ENDBRANCH  35  36
ENDBRANCH  32  35
ENDBRANCH  27  29
ENDBRANCH   1  23
TORSDOF 4
