REMARK SMILES CC(C)(NC(=O)C1=C(O)[C@@H]2Oc3c(O)ccc4c3[C@@]23CCN(CC2CC2)[C@H](C4)[C@]3(O)C1)c1nc(-c2ccccc2)no1
REMARK SMILES IDX 5 1 6 2 4 3 7 5 10 6 11 7 19 8 8 9 12 10 18 11 20 12 29 13
REMARK SMILES IDX 13 14 17 15 21 16 27 17 31 18 15 19 28 20 16 21 22 22 9 23
REMARK SMILES IDX 30 25 14 27 23 29 24 30 25 31 26 32 2 33 1 34 3 35 32 36
REMARK SMILES IDX 33 37 42 38 34 39 41 40 35 41 36 42 40 43 37 44 39 45 38 46
REMARK H PARENT 4 4 9 24 30 26 14 28
REMARK Flexibility Score: inf
ROOT
ATOM      1  C   UNL     1       1.213   0.197  -0.351  1.00  0.00     0.251 C 
ATOM      2  O   UNL     1       1.290   0.857  -1.426  1.00  0.00    -0.270 OA
ATOM      3  N   UNL     1       2.408  -0.033   0.411  1.00  0.00    -0.338 N 
ATOM      4  H   UNL     1       2.350   0.094   1.454  1.00  0.00     0.164 HD
ENDROOT
BRANCH   1   5
ATOM      5  C   UNL     1      -0.123  -0.228   0.136  1.00  0.00     0.061 C 
ATOM      6  C   UNL     1      -1.636  -1.709   1.536  1.00  0.00     0.252 C 
ATOM      7  O   UNL     1      -1.896  -3.004   0.981  1.00  0.00    -0.477 OA
ATOM      8  C   UNL     1      -2.845  -0.823   1.092  1.00  0.00     0.075 C 
ATOM      9  C   UNL     1      -0.285  -1.237   1.031  1.00  0.00     0.143 C 
ATOM     10  C   UNL     1      -2.817  -2.889  -0.040  1.00  0.00     0.166 A 
ATOM     11  C   UNL     1      -3.385  -1.649  -0.042  1.00  0.00     0.015 A 
ATOM     12  C   UNL     1      -3.969  -0.760   2.179  1.00  0.00     0.035 C 
ATOM     13  C   UNL     1      -2.471   0.575   0.556  1.00  0.00     0.099 C 
ATOM     14  C   UNL     1      -3.090  -3.803  -1.060  1.00  0.00     0.158 A 
ATOM     15  C   UNL     1      -4.096  -1.161  -1.124  1.00  0.00    -0.038 A 
ATOM     16  C   UNL     1      -4.685   0.607   2.292  1.00  0.00     0.086 C 
ATOM     17  C   UNL     1      -3.778   1.173  -0.054  1.00  0.00     0.094 C 
ATOM     18  C   UNL     1      -1.323   0.457  -0.475  1.00  0.00     0.083 C 
ATOM     19  C   UNL     1      -3.885  -3.371  -2.139  1.00  0.00     0.050 A 
ATOM     20  C   UNL     1      -4.341   0.319  -1.247  1.00  0.00     0.058 C 
ATOM     21  C   UNL     1      -4.379  -2.051  -2.176  1.00  0.00     0.008 A 
ATOM     22  N   UNL     1      -4.800   1.334   1.011  1.00  0.00    -0.297 NA
BRANCH   9  23
ATOM     23  O   UNL     1       0.825  -1.936   1.496  1.00  0.00    -0.508 OA
ATOM     24  H   UNL     1       0.721  -2.765   2.074  1.00  0.00     0.293 HD
ENDBRANCH   9  23
BRANCH  13  25
ATOM     25  O   UNL     1      -2.014   1.380   1.625  1.00  0.00    -0.387 OA
ATOM     26  H   UNL     1      -1.827   2.286   1.264  1.00  0.00     0.211 HD
ENDBRANCH  13  25
BRANCH  14  27
ATOM     27  O   UNL     1      -2.544  -5.084  -1.051  1.00  0.00    -0.504 OA
ATOM     28  H   UNL     1      -1.976  -5.416  -0.279  1.00  0.00     0.293 HD
ENDBRANCH  14  27
BRANCH  22  29
ATOM     29  C   UNL     1      -6.045   2.094   0.812  1.00  0.00     0.088 C 
BRANCH  29  30
ATOM     30  C   UNL     1      -5.902   3.254  -0.179  1.00  0.00     0.003 C 
ATOM     31  C   UNL     1      -7.213   3.990  -0.429  1.00  0.00     0.005 C 
ATOM     32  C   UNL     1      -6.625   3.093  -1.505  1.00  0.00     0.005 C 
ENDBRANCH  29  30
ENDBRANCH  22  29
ENDBRANCH   1   5
BRANCH   3  33
ATOM     33  C   UNL     1       3.593  -0.753  -0.092  1.00  0.00     0.114 C 
ATOM     34  C   UNL     1       3.708  -2.112   0.640  1.00  0.00     0.045 C 
ATOM     35  C   UNL     1       3.511  -1.022  -1.608  1.00  0.00     0.045 C 
BRANCH  33  36
ATOM     36  C   UNL     1       4.842   0.037   0.220  1.00  0.00     0.252 A 
ATOM     37  N   UNL     1       6.016  -0.155  -0.404  1.00  0.00    -0.189 NA
ATOM     38  O   UNL     1       4.942   0.904   1.202  1.00  0.00    -0.336 OA
ATOM     39  C   UNL     1       6.826   0.676   0.305  1.00  0.00     0.202 A 
ATOM     40  N   UNL     1       6.165   1.323   1.283  1.00  0.00    -0.057 NA
BRANCH  39  41
ATOM     41  C   UNL     1       8.270   0.767   0.073  1.00  0.00     0.023 A 
ATOM     42  C   UNL     1       8.789   0.753  -1.231  1.00  0.00     0.012 A 
ATOM     43  C   UNL     1       9.156   0.840   1.166  1.00  0.00     0.012 A 
ATOM     44  C   UNL     1      10.166   0.831  -1.442  1.00  0.00     0.001 A 
ATOM     45  C   UNL     1      10.537   0.889   0.952  1.00  0.00     0.001 A 
ATOM     46  C   UNL     1      11.045   0.899  -0.352  1.00  0.00     0.000 A 
ENDBRANCH  39  41
ENDBRANCH  33  36
ENDBRANCH   3  33
TORSDOF 9
