REMARK SMILES CC(=O)Oc1cccc2c1C(=O)c1c(OC(C)=O)cc(C(=O)O)cc1C2=O
REMARK SMILES IDX 5 1 6 2 7 3 8 4 9 5 10 6 11 7 12 8 13 9 14 10 19 11 20 12
REMARK SMILES IDX 24 13 25 14 26 15 27 16 4 17 2 18 1 19 3 20 15 21 16 22
REMARK SMILES IDX 17 23 18 24 21 25 22 26 23 27
REMARK H PARENT 23 28
REMARK Flexibility Score: inf
ROOT
ATOM      1  C   UNL     1       2.750  -0.480  -1.055  1.00  0.00     0.142 A 
ATOM      2  C   UNL     1       3.878   0.115  -1.627  1.00  0.00     0.048 A 
ATOM      3  C   UNL     1       3.800   1.390  -2.184  1.00  0.00     0.005 A 
ATOM      4  C   UNL     1       2.591   2.085  -2.173  1.00  0.00     0.013 A 
ATOM      5  C   UNL     1       1.436   1.498  -1.629  1.00  0.00     0.037 A 
ATOM      6  C   UNL     1       1.501   0.192  -1.095  1.00  0.00     0.077 A 
ATOM      7  C   UNL     1       0.245  -0.461  -0.647  1.00  0.00     0.202 C 
ATOM      8  O   UNL     1       0.185  -1.718  -0.568  1.00  0.00    -0.288 OA
ATOM      9  C   UNL     1      -0.971   0.356  -0.403  1.00  0.00     0.077 A 
ATOM     10  C   UNL     1      -2.088  -0.159   0.298  1.00  0.00     0.143 A 
ATOM     11  C   UNL     1      -3.267   0.588   0.379  1.00  0.00     0.063 A 
ATOM     12  C   UNL     1      -3.344   1.874  -0.175  1.00  0.00     0.064 A 
ATOM     13  C   UNL     1      -2.217   2.408  -0.818  1.00  0.00     0.029 A 
ATOM     14  C   UNL     1      -1.032   1.662  -0.934  1.00  0.00     0.038 A 
ATOM     15  C   UNL     1       0.152   2.238  -1.616  1.00  0.00     0.194 C 
ATOM     16  O   UNL     1       0.073   3.369  -2.171  1.00  0.00    -0.289 OA
ENDROOT
BRANCH   1  17
ATOM     17  O   UNL     1       2.900  -1.732  -0.447  1.00  0.00    -0.426 OA
BRANCH  17  18
ATOM     18  C   UNL     1       2.690  -1.940   0.921  1.00  0.00     0.308 C 
ATOM     19  C   UNL     1       2.747  -3.325   1.469  1.00  0.00     0.139 C 
ATOM     20  O   UNL     1       2.507  -0.966   1.700  1.00  0.00    -0.252 OA
ENDBRANCH  17  18
ENDBRANCH   1  17
BRANCH  10  21
ATOM     21  O   UNL     1      -2.057  -1.409   0.928  1.00  0.00    -0.426 OA
BRANCH  21  22
ATOM     22  C   UNL     1      -1.205  -1.699   2.000  1.00  0.00     0.308 C 
ATOM     23  C   UNL     1      -1.115  -3.098   2.505  1.00  0.00     0.139 C 
ATOM     24  O   UNL     1      -0.495  -0.796   2.521  1.00  0.00    -0.252 OA
ENDBRANCH  21  22
ENDBRANCH  10  21
BRANCH  12  25
ATOM     25  C   UNL     1      -4.591   2.666  -0.071  1.00  0.00     0.335 C 
ATOM     26  O   UNL     1      -5.603   2.190   0.511  1.00  0.00    -0.246 OA
BRANCH  25  27
ATOM     27  O   UNL     1      -4.659   3.945  -0.617  1.00  0.00    -0.478 OA
ATOM     28  H   UNL     1      -5.507   4.495  -0.552  1.00  0.00     0.297 HD
ENDBRANCH  25  27
ENDBRANCH  12  25
TORSDOF 6
