REMARK SMILES CCOc1cc2ncc(C#N)c(Nc3ccc(OCc4ccccn4)c(Cl)c3)c2cc1NC(=O)/C=C/CN(C)C
REMARK SMILES IDX 4 1 31 2 30 3 29 4 12 5 9 6 8 7 7 8 6 9 5 10 3 11 2 12 1 13
REMARK SMILES IDX 32 14 33 15 34 17 35 18 36 19 37 20 38 21 39 22 40 23 13 24
REMARK SMILES IDX 14 26 15 27 28 28 16 29 26 30 17 31 27 32 18 33 19 34 20 35
REMARK SMILES IDX 21 36 25 37 22 38 24 39 23 40 10 41 11 42
REMARK H PARENT 32 16 13 25
REMARK Flexibility Score: inf
ROOT
ATOM      1  C   UNL     1      -2.157  -1.877   1.734  1.00  0.00     0.144 A 
ATOM      2  C   UNL     1      -1.619  -0.847   0.936  1.00  0.00     0.084 A 
ATOM      3  C   UNL     1      -0.485  -0.145   1.366  1.00  0.00     0.042 A 
ATOM      4  C   UNL     1       0.092  -0.414   2.618  1.00  0.00     0.027 A 
ATOM      5  C   UNL     1       1.217   0.293   3.092  1.00  0.00     0.068 A 
ATOM      6  C   UNL     1       1.730   0.001   4.369  1.00  0.00     0.094 A 
ATOM      7  C   UNL     1       1.129  -0.999   5.139  1.00  0.00     0.133 A 
ATOM      8  N   UNL     1       0.056  -1.679   4.660  1.00  0.00    -0.255 NA
ATOM      9  C   UNL     1      -0.475  -1.417   3.436  1.00  0.00     0.076 A 
ATOM     10  C   UNL     1      -1.580  -2.146   2.990  1.00  0.00     0.077 A 
ENDROOT
BRANCH   1  11
ATOM     11  O   UNL     1      -3.238  -2.624   1.233  1.00  0.00    -0.492 OA
BRANCH  11  12
ATOM     12  C   UNL     1      -3.988  -3.600   1.955  1.00  0.00     0.226 C 
ATOM     13  C   UNL     1      -4.922  -2.931   2.957  1.00  0.00     0.049 C 
ENDBRANCH  11  12
ENDBRANCH   1  11
BRANCH   2  14
ATOM     14  N   UNL     1      -2.197  -0.519  -0.338  1.00  0.00    -0.319 N 
ATOM     15  C   UNL     1      -3.600  -0.274  -0.518  1.00  0.00     0.248 C 
ATOM     16  H   UNL     1      -1.552  -0.329  -1.139  1.00  0.00     0.170 HD
ATOM     17  O   UNL     1      -4.357  -0.160   0.486  1.00  0.00    -0.270 OA
BRANCH  15  18
ATOM     18  C   UNL     1      -4.147  -0.128  -1.880  1.00  0.00     0.068 C 
ATOM     19  C   UNL     1      -5.451   0.050  -2.111  1.00  0.00    -0.006 C 
BRANCH  19  20
ATOM     20  C   UNL     1      -5.973   0.192  -3.512  1.00  0.00     0.111 C 
BRANCH  20  21
ATOM     21  N   UNL     1      -7.446   0.314  -3.507  1.00  0.00    -0.306 NA
ATOM     22  C   UNL     1      -7.910   0.926  -4.763  1.00  0.00     0.105 C 
ATOM     23  C   UNL     1      -8.079  -1.006  -3.340  1.00  0.00     0.105 C 
ENDBRANCH  20  21
ENDBRANCH  19  20
ENDBRANCH  15  18
ENDBRANCH   2  14
BRANCH   5  24
ATOM     24  N   UNL     1       1.848   1.298   2.284  1.00  0.00    -0.354 N 
ATOM     25  H   UNL     1       1.683   2.298   2.541  1.00  0.00     0.167 HD
BRANCH  24  26
ATOM     26  C   UNL     1       2.791   0.987   1.242  1.00  0.00     0.040 A 
ATOM     27  C   UNL     1       3.362   2.029   0.498  1.00  0.00     0.030 A 
ATOM     28  C   UNL     1       3.169  -0.339   0.961  1.00  0.00     0.050 A 
ATOM     29  C   UNL     1       4.295   1.758  -0.506  1.00  0.00     0.050 A 
ATOM     30  C   UNL     1       4.105  -0.613  -0.042  1.00  0.00     0.085 A 
ATOM     31  C   UNL     1       4.682   0.432  -0.780  1.00  0.00     0.138 A 
ATOM     32  Cl  UNL     1       4.559  -2.281  -0.355  1.00  0.00    -0.080 Cl
BRANCH  31  33
ATOM     33  O   UNL     1       5.628   0.113  -1.769  1.00  0.00    -0.486 OA
BRANCH  33  34
ATOM     34  C   UNL     1       6.374   1.058  -2.538  1.00  0.00     0.285 C 
BRANCH  34  35
ATOM     35  C   UNL     1       7.372   1.780  -1.679  1.00  0.00     0.078 A 
ATOM     36  C   UNL     1       8.274   1.067  -0.876  1.00  0.00     0.027 A 
ATOM     37  N   UNL     1       7.422   3.141  -1.703  1.00  0.00    -0.258 NA
ATOM     38  C   UNL     1       9.198   1.766  -0.097  1.00  0.00     0.004 A 
ATOM     39  C   UNL     1       8.316   3.839  -0.953  1.00  0.00     0.111 A 
ATOM     40  C   UNL     1       9.221   3.162  -0.132  1.00  0.00     0.020 A 
ENDBRANCH  34  35
ENDBRANCH  33  34
ENDBRANCH  31  33
ENDBRANCH  24  26
ENDBRANCH   5  24
BRANCH   6  41
ATOM     41  C   UNL     1       2.879   0.702   4.886  1.00  0.00     0.103 C 
ATOM     42  N   UNL     1       3.802   1.265   5.299  1.00  0.00    -0.192 NA
ENDBRANCH   6  41
TORSDOF 12
