REMARK SMILES O=C(O)c1ccccc1O.OCCN(CCO)CCO
REMARK SMILES IDX 14 1 13 2 12 3 11 4 15 6 16 7 17 8 18 10 19 11 20 12
REMARK H PARENT 11 5 17 9 20 13
REMARK Flexibility Score: inf
ROOT
ATOM      1  N   UNL     1       0.326   0.052  -0.026  1.00  0.00    -0.297 NA
ENDROOT
BRANCH   1   2
ATOM      2  C   UNL     1      -0.081   1.067   0.976  1.00  0.00     0.113 C 
BRANCH   2   3
ATOM      3  C   UNL     1      -0.436   2.413   0.325  1.00  0.00     0.171 C 
BRANCH   3   4
ATOM      4  O   UNL     1      -1.767   2.426  -0.118  1.00  0.00    -0.395 OA
ATOM      5  H   UNL     1      -2.336   2.513   0.690  1.00  0.00     0.210 HD
ENDBRANCH   3   4
ENDBRANCH   2   3
ENDBRANCH   1   2
BRANCH   1   6
ATOM      6  C   UNL     1       1.043  -1.082   0.604  1.00  0.00     0.113 C 
BRANCH   6   7
ATOM      7  C   UNL     1       2.544  -0.799   0.662  1.00  0.00     0.171 C 
BRANCH   7   8
ATOM      8  O   UNL     1       3.041  -0.607  -0.634  1.00  0.00    -0.395 OA
ATOM      9  H   UNL     1       4.012  -0.431  -0.532  1.00  0.00     0.210 HD
ENDBRANCH   7   8
ENDBRANCH   6   7
ENDBRANCH   1   6
BRANCH   1  10
ATOM     10  C   UNL     1      -0.771  -0.403  -0.915  1.00  0.00     0.113 C 
BRANCH  10  11
ATOM     11  C   UNL     1      -1.941  -1.081  -0.177  1.00  0.00     0.171 C 
BRANCH  11  12
ATOM     12  O   UNL     1      -2.820  -1.661  -1.102  1.00  0.00    -0.395 OA
ATOM     13  H   UNL     1      -2.399  -2.508  -1.404  1.00  0.00     0.210 HD
ENDBRANCH  11  12
ENDBRANCH  10  11
ENDBRANCH   1  10
TORSDOF 9
