REMARK SMILES COc1cccc(-c2c(C)n(Cc3c(F)cccc3C(F)(F)F)c(=O)n(C[C@H](NCCCC(=O)O)c3ccccc3)c2=O)c1F
REMARK SMILES IDX 28 1 27 2 26 3 8 4 9 5 42 6 10 7 11 8 43 9 24 10 25 11 7 12
REMARK SMILES IDX 3 13 4 14 44 15 5 16 45 17 6 18 2 19 1 20 12 21 13 22 19 23
REMARK SMILES IDX 14 24 18 25 16 26 15 27 17 28 20 29 21 30 22 31 23 32 29 33
REMARK SMILES IDX 30 35 31 36 32 37 33 38 34 39 35 40 36 42 37 43 41 44 38 45
REMARK SMILES IDX 40 46 39 47
REMARK H PARENT 29 34 35 41
REMARK Flexibility Score: inf
ROOT
ATOM      1  C   UNL     1       2.293  -0.267  -1.987  1.00  0.00     0.104 C 
ENDROOT
BRANCH   1   2
ATOM      2  C   UNL     1       1.129   0.459  -2.691  1.00  0.00     0.154 C 
BRANCH   2   3
ATOM      3  N   UNL     1      -0.102   0.384  -1.872  1.00  0.00    -0.258 N 
ATOM      4  C   UNL     1      -1.516   1.287  -0.154  1.00  0.00     0.070 A 
ATOM      5  C   UNL     1      -2.340   0.144  -0.249  1.00  0.00     0.033 A 
ATOM      6  C   UNL     1      -0.391   1.378  -0.979  1.00  0.00     0.264 A 
ATOM      7  C   UNL     1      -3.575   0.024   0.630  1.00  0.00     0.065 C 
ATOM      8  N   UNL     1      -2.030  -0.842  -1.163  1.00  0.00    -0.293 N 
ATOM      9  O   UNL     1       0.356   2.394  -0.895  1.00  0.00    -0.268 OA
ATOM     10  C   UNL     1      -0.919  -0.713  -1.967  1.00  0.00     0.331 A 
ATOM     11  O   UNL     1      -0.633  -1.625  -2.795  1.00  0.00    -0.248 OA
BRANCH   4  12
ATOM     12  C   UNL     1      -1.798   2.393   0.793  1.00  0.00     0.029 A 
ATOM     13  C   UNL     1      -3.103   4.348   1.436  1.00  0.00     0.155 A 
ATOM     14  C   UNL     1      -2.281   4.507   2.569  1.00  0.00     0.049 A 
ATOM     15  C   UNL     1      -2.852   3.291   0.550  1.00  0.00     0.173 A 
ATOM     16  C   UNL     1      -1.230   3.618   2.806  1.00  0.00     0.005 A 
ATOM     17  F   UNL     1      -3.634   3.142  -0.549  1.00  0.00    -0.202 F 
ATOM     18  C   UNL     1      -0.986   2.566   1.922  1.00  0.00     0.012 A 
BRANCH  13  19
ATOM     19  O   UNL     1      -4.170   5.216   1.156  1.00  0.00    -0.494 OA
ATOM     20  C   UNL     1      -4.537   6.327   1.965  1.00  0.00     0.278 C 
ENDBRANCH  13  19
ENDBRANCH   4  12
BRANCH   8  21
ATOM     21  C   UNL     1      -2.901  -2.036  -1.315  1.00  0.00     0.166 C 
BRANCH  21  22
ATOM     22  C   UNL     1      -2.770  -3.026  -0.160  1.00  0.00     0.020 A 
ATOM     23  C   UNL     1      -3.901  -3.745   0.336  1.00  0.00     0.063 A 
ATOM     24  C   UNL     1      -1.497  -3.299   0.396  1.00  0.00     0.128 A 
ATOM     25  C   UNL     1      -3.733  -4.606   1.440  1.00  0.00     0.013 A 
ATOM     26  C   UNL     1      -1.361  -4.180   1.469  1.00  0.00     0.039 A 
ATOM     27  F   UNL     1      -0.372  -2.725  -0.093  1.00  0.00    -0.207 F 
ATOM     28  C   UNL     1      -2.476  -4.817   1.999  1.00  0.00     0.004 A 
BRANCH  23  29
ATOM     29  C   UNL     1      -5.286  -3.598  -0.273  1.00  0.00     0.416 C 
ATOM     30  F   UNL     1      -5.223  -3.772  -1.644  1.00  0.00    -0.166 F 
ATOM     31  F   UNL     1      -6.170  -4.540   0.226  1.00  0.00    -0.166 F 
ATOM     32  F   UNL     1      -5.791  -2.345   0.014  1.00  0.00    -0.166 F 
ENDBRANCH  23  29
ENDBRANCH  21  22
ENDBRANCH   8  21
ENDBRANCH   2   3
ENDBRANCH   1   2
BRANCH   1  33
ATOM     33  N   UNL     1       2.604   0.402  -0.709  1.00  0.00    -0.308 NA
ATOM     34  H   UNL     1       3.024   1.344  -0.892  1.00  0.00     0.123 HD
BRANCH  33  35
ATOM     35  C   UNL     1       3.534  -0.379   0.116  1.00  0.00     0.082 C 
BRANCH  35  36
ATOM     36  C   UNL     1       3.543   0.176   1.541  1.00  0.00     0.027 C 
BRANCH  36  37
ATOM     37  C   UNL     1       4.554  -0.572   2.419  1.00  0.00     0.124 C 
BRANCH  37  38
ATOM     38  C   UNL     1       4.523  -0.068   3.828  1.00  0.00     0.303 C 
ATOM     39  O   UNL     1       4.733   1.152   4.070  1.00  0.00    -0.252 OA
BRANCH  38  40
ATOM     40  O   UNL     1       4.296  -0.956   4.877  1.00  0.00    -0.481 OA
ATOM     41  H   UNL     1       4.293  -0.634   5.838  1.00  0.00     0.296 HD
ENDBRANCH  38  40
ENDBRANCH  37  38
ENDBRANCH  36  37
ENDBRANCH  35  36
ENDBRANCH  33  35
ENDBRANCH   1  33
BRANCH   1  42
ATOM     42  C   UNL     1       3.512  -0.348  -2.895  1.00  0.00    -0.029 A 
ATOM     43  C   UNL     1       4.043  -1.605  -3.243  1.00  0.00     0.005 A 
ATOM     44  C   UNL     1       4.136   0.815  -3.386  1.00  0.00     0.005 A 
ATOM     45  C   UNL     1       5.168  -1.694  -4.068  1.00  0.00     0.000 A 
ATOM     46  C   UNL     1       5.260   0.720  -4.213  1.00  0.00     0.000 A 
ATOM     47  C   UNL     1       5.775  -0.533  -4.554  1.00  0.00     0.000 A 
ENDBRANCH   1  42
TORSDOF 14
