REMARK SMILES Cc1cc(Nc2ncnc3ccc(NC4=NC(C)(C)CO4)cc23)ccc1Oc1ccn2ncnc2c1
REMARK SMILES IDX 1 1 2 2 3 3 4 4 24 5 25 6 26 7 27 8 28 9 36 10 29 11 35 12
REMARK SMILES IDX 30 13 34 14 31 15 33 16 32 17 5 18 6 20 7 21 23 22 8 23
REMARK SMILES IDX 10 24 22 25 9 26 11 27 13 28 12 29 14 30 15 31 16 33 21 34
REMARK SMILES IDX 17 35 20 36 18 37 19 38
REMARK H PARENT 5 19 14 32
REMARK Flexibility Score: inf
ROOT
ATOM      1  C   UNL     1       4.228   2.255  -1.573  1.00  0.00     0.048 C 
ATOM      2  C   UNL     1       3.636   0.979  -1.041  1.00  0.00    -0.006 A 
ATOM      3  C   UNL     1       2.319   0.967  -0.550  1.00  0.00     0.033 A 
ATOM      4  C   UNL     1       1.756  -0.223  -0.054  1.00  0.00     0.040 A 
ATOM      5  C   UNL     1       2.517  -1.411  -0.079  1.00  0.00     0.030 A 
ATOM      6  C   UNL     1       3.830  -1.393  -0.551  1.00  0.00     0.049 A 
ATOM      7  C   UNL     1       4.400  -0.200  -1.024  1.00  0.00     0.130 A 
ENDROOT
BRANCH   7   8
ATOM      8  O   UNL     1       5.717  -0.185  -1.505  1.00  0.00    -0.457 OA
BRANCH   8   9
ATOM      9  C   UNL     1       6.804  -0.746  -0.823  1.00  0.00     0.132 A 
ATOM     10  C   UNL     1       6.810  -0.860   0.584  1.00  0.00     0.096 A 
ATOM     11  C   UNL     1       7.936  -1.153  -1.561  1.00  0.00     0.067 A 
ATOM     12  C   UNL     1       7.957  -1.368   1.186  1.00  0.00     0.158 A 
ATOM     13  C   UNL     1       9.056  -1.674  -0.895  1.00  0.00     0.119 A 
ATOM     14  N   UNL     1       8.174  -1.519   2.503  1.00  0.00    -0.215 NA
ATOM     15  N   UNL     1       9.010  -1.750   0.458  1.00  0.00    -0.221 N 
ATOM     16  C   UNL     1       9.436  -2.024   2.509  1.00  0.00     0.247 A 
ATOM     17  N   UNL     1       9.959  -2.170   1.268  1.00  0.00    -0.155 NA
ENDBRANCH   8   9
ENDBRANCH   7   8
BRANCH   4  18
ATOM     18  N   UNL     1       0.395  -0.260   0.409  1.00  0.00    -0.340 N 
ATOM     19  H   UNL     1      -0.110  -1.172   0.403  1.00  0.00     0.168 HD
BRANCH  18  20
ATOM     20  C   UNL     1      -0.266   0.880   0.984  1.00  0.00     0.141 A 
ATOM     21  N   UNL     1       0.429   1.701   1.823  1.00  0.00    -0.219 NA
ATOM     22  C   UNL     1      -1.623   1.160   0.715  1.00  0.00     0.045 A 
ATOM     23  C   UNL     1      -0.158   2.773   2.418  1.00  0.00     0.224 A 
ATOM     24  C   UNL     1      -2.211   2.276   1.357  1.00  0.00     0.076 A 
ATOM     25  C   UNL     1      -2.383   0.414  -0.204  1.00  0.00     0.040 A 
ATOM     26  N   UNL     1      -1.468   3.051   2.190  1.00  0.00    -0.236 NA
ATOM     27  C   UNL     1      -3.547   2.610   1.106  1.00  0.00     0.031 A 
ATOM     28  C   UNL     1      -3.722   0.754  -0.459  1.00  0.00     0.043 A 
ATOM     29  C   UNL     1      -4.296   1.862   0.199  1.00  0.00     0.028 A 
BRANCH  28  30
ATOM     30  N   UNL     1      -4.457   0.008  -1.446  1.00  0.00    -0.310 N 
ATOM     31  C   UNL     1      -5.842  -0.339  -1.320  1.00  0.00     0.289 C 
ATOM     32  H   UNL     1      -3.923  -0.454  -2.220  1.00  0.00     0.171 HD
ATOM     33  N   UNL     1      -6.528  -0.122  -0.252  1.00  0.00    -0.225 NA
ATOM     34  O   UNL     1      -6.543  -0.983  -2.324  1.00  0.00    -0.462 OA
ATOM     35  C   UNL     1      -7.885  -0.624  -0.449  1.00  0.00     0.095 C 
ATOM     36  C   UNL     1      -7.860  -1.244  -1.878  1.00  0.00     0.263 C 
ATOM     37  C   UNL     1      -8.876   0.549  -0.362  1.00  0.00     0.040 C 
ATOM     38  C   UNL     1      -8.200  -1.684   0.623  1.00  0.00     0.040 C 
ENDBRANCH  28  30
ENDBRANCH  18  20
ENDBRANCH   4  18
TORSDOF 5
