REMARK SMILES COc1cc2nccc(Oc3ccc(NC(=O)Nc4cc(C)on4)c(Cl)c3)c2cc1OC
REMARK SMILES IDX 11 1 27 2 25 3 26 4 14 5 13 6 12 7 10 8 9 9 3 10 30 11 4 12
REMARK SMILES IDX 29 13 5 14 28 15 6 16 7 17 8 18 2 19 1 20 31 21 32 22 15 23
REMARK SMILES IDX 16 24 17 26 18 27 19 29 24 30 20 31 23 32 21 33 22 34
REMARK H PARENT 15 25 18 28
REMARK Flexibility Score: inf
ROOT
ATOM      1  C   UNL     1      -0.965  -0.539  -2.535  1.00  0.00     0.129 A 
ATOM      2  C   UNL     1      -0.422  -1.792  -2.833  1.00  0.00     0.069 A 
ATOM      3  C   UNL     1       0.737  -2.241  -2.190  1.00  0.00     0.068 A 
ATOM      4  Cl  UNL     1       1.375  -3.825  -2.613  1.00  0.00    -0.082 Cl
ATOM      5  C   UNL     1       1.384  -1.419  -1.247  1.00  0.00     0.061 A 
ATOM      6  C   UNL     1       0.840  -0.156  -0.953  1.00  0.00     0.031 A 
ATOM      7  C   UNL     1      -0.317   0.285  -1.597  1.00  0.00     0.049 A 
ENDROOT
BRANCH   1   8
ATOM      8  O   UNL     1      -2.140  -0.144  -3.193  1.00  0.00    -0.457 OA
BRANCH   8   9
ATOM      9  C   UNL     1      -2.938   0.944  -2.812  1.00  0.00     0.138 A 
ATOM     10  C   UNL     1      -4.812   1.256   0.974  1.00  0.00     0.162 A 
ATOM     11  C   UNL     1      -4.092   0.094   0.655  1.00  0.00     0.161 A 
ATOM     12  C   UNL     1      -4.927   2.287   0.023  1.00  0.00     0.079 A 
ATOM     13  C   UNL     1      -3.487  -0.030  -0.610  1.00  0.00     0.064 A 
ATOM     14  C   UNL     1      -4.315   2.170  -1.228  1.00  0.00     0.078 A 
ATOM     15  C   UNL     1      -3.567   1.014  -1.547  1.00  0.00     0.047 A 
ATOM     16  N   UNL     1      -4.448   3.170  -2.139  1.00  0.00    -0.256 NA
ATOM     17  C   UNL     1      -3.880   3.098  -3.370  1.00  0.00     0.115 A 
ATOM     18  C   UNL     1      -3.123   1.983  -3.729  1.00  0.00     0.068 A 
BRANCH  10  19
ATOM     19  O   UNL     1      -5.400   1.348   2.246  1.00  0.00    -0.493 OA
ATOM     20  C   UNL     1      -6.135   2.472   2.717  1.00  0.00     0.278 C 
ENDBRANCH  10  19
BRANCH  11  21
ATOM     21  O   UNL     1      -3.998  -0.915   1.627  1.00  0.00    -0.493 OA
ATOM     22  C   UNL     1      -3.265  -2.125   1.466  1.00  0.00     0.278 C 
ENDBRANCH  11  21
ENDBRANCH   8   9
ENDBRANCH   1   8
BRANCH   5  23
ATOM     23  N   UNL     1       2.553  -1.890  -0.553  1.00  0.00    -0.306 N 
ATOM     24  C   UNL     1       3.687  -1.064  -0.252  1.00  0.00     0.324 C 
ATOM     25  H   UNL     1       2.610  -2.903  -0.304  1.00  0.00     0.171 HD
ATOM     26  O   UNL     1       3.791   0.082  -0.767  1.00  0.00    -0.248 OA
ATOM     27  N   UNL     1       4.714  -1.566   0.616  1.00  0.00    -0.289 N 
ATOM     28  H   UNL     1       4.556  -2.485   1.088  1.00  0.00     0.173 HD
BRANCH  27  29
ATOM     29  C   UNL     1       5.959  -0.893   0.853  1.00  0.00     0.177 A 
ATOM     30  N   UNL     1       6.346   0.245   0.244  1.00  0.00    -0.062 NA
ATOM     31  C   UNL     1       6.942  -1.335   1.712  1.00  0.00     0.095 A 
ATOM     32  O   UNL     1       7.534   0.521   0.700  1.00  0.00    -0.360 OA
ATOM     33  C   UNL     1       7.929  -0.381   1.569  1.00  0.00     0.135 A 
ATOM     34  C   UNL     1       9.248  -0.359   2.265  1.00  0.00     0.091 C 
ENDBRANCH  27  29
ENDBRANCH   5  23
TORSDOF 6
