REMARK SMILES Oc1cccc(O)c1
REMARK SMILES IDX 2 1 8 2 6 3 5 4 4 5 3 6 1 7 7 9
REMARK H PARENT 1 8 7 10
REMARK Flexibility Score: inf
ROOT
ATOM      1  C   UNL     1       1.311   0.034  -0.313  1.00  0.00     0.119 A 
ATOM      2  C   UNL     1       0.453  -1.046  -0.061  1.00  0.00     0.092 A 
ATOM      3  C   UNL     1      -0.894  -0.818   0.248  1.00  0.00     0.119 A 
ATOM      4  C   UNL     1      -1.382   0.495   0.306  1.00  0.00     0.046 A 
ATOM      5  C   UNL     1      -0.527   1.572   0.056  1.00  0.00     0.008 A 
ATOM      6  C   UNL     1       0.818   1.343  -0.253  1.00  0.00     0.046 A 
ENDROOT
BRANCH   1   7
ATOM      7  O   UNL     1       2.652  -0.181  -0.622  1.00  0.00    -0.508 OA
ATOM      8  H   UNL     1       3.040  -1.116  -0.672  1.00  0.00     0.293 HD
ENDBRANCH   1   7
BRANCH   3   9
ATOM      9  O   UNL     1      -1.735  -1.901   0.495  1.00  0.00    -0.508 OA
ATOM     10  H   UNL     1      -2.714  -1.769   0.722  1.00  0.00     0.293 HD
ENDBRANCH   3   9
TORSDOF 2
