REMARK SMILES N#Cc1ccc([C@H]2CCc3cncn32)c(F)c1
REMARK SMILES IDX 16 1 15 2 6 3 5 4 4 5 3 6 17 7 7 8 8 9 14 10 9 11 10 12
REMARK SMILES IDX 13 13 11 14 12 15 2 16 1 17
REMARK H PARENT
REMARK Flexibility Score: inf
ROOT
ATOM      1  F   UNL     1       0.016   1.935  -0.080  1.00  0.00    -0.207 F 
ATOM      2  C   UNL     1       1.030   1.040   0.032  1.00  0.00     0.129 A 
ATOM      3  C   UNL     1       0.766  -0.339   0.169  1.00  0.00     0.011 A 
ATOM      4  C   UNL     1       1.846  -1.229   0.302  1.00  0.00     0.010 A 
ATOM      5  C   UNL     1       3.162  -0.758   0.284  1.00  0.00     0.020 A 
ATOM      6  C   UNL     1       3.416   0.611   0.140  1.00  0.00     0.055 A 
ATOM      7  C   UNL     1       2.349   1.507   0.015  1.00  0.00     0.059 A 
ENDROOT
BRANCH   3   8
ATOM      8  C   UNL     1      -0.650  -0.876   0.201  1.00  0.00     0.122 C 
ATOM      9  C   UNL     1      -1.455  -0.401   1.450  1.00  0.00     0.037 C 
ATOM     10  N   UNL     1      -1.428  -0.365  -0.902  1.00  0.00    -0.327 N 
ATOM     11  C   UNL     1      -2.766   0.246   0.919  1.00  0.00     0.058 C 
ATOM     12  C   UNL     1      -2.554   0.197  -0.540  1.00  0.00     0.038 A 
ATOM     13  C   UNL     1      -1.527  -0.627  -2.214  1.00  0.00     0.200 A 
ATOM     14  C   UNL     1      -3.369   0.323  -1.639  1.00  0.00     0.134 A 
ATOM     15  N   UNL     1      -2.713  -0.194  -2.710  1.00  0.00    -0.245 NA
ENDBRANCH   3   8
BRANCH   6  16
ATOM     16  C   UNL     1       4.771   1.095   0.123  1.00  0.00     0.099 C 
ATOM     17  N   UNL     1       5.861   1.485   0.109  1.00  0.00    -0.192 NA
ENDBRANCH   6  16
TORSDOF 2
