REMARK SMILES O=C(/C=C\n1cnc(-c2cc(C(F)(F)F)cc(C(F)(F)F)c2)n1)NNc1cnccn1
REMARK SMILES IDX 4 1 3 2 5 3 8 4 23 5 7 6 6 7 9 8 11 9 16 10 10 11 17 12
REMARK SMILES IDX 22 13 12 14 13 15 14 16 15 17 18 18 19 19 20 20 21 21 2 22
REMARK SMILES IDX 1 23 24 24 25 26 26 28 31 29 27 30 30 31 28 32 29 33
REMARK H PARENT 24 25 25 27
REMARK Flexibility Score: inf
ROOT
ATOM      1  C   UNL     1       0.909  -1.654  -1.673  1.00  0.00     0.120 C 
ATOM      2  C   UNL     1       2.127  -1.109  -1.817  1.00  0.00     0.093 C 
ENDROOT
BRANCH   1   3
ATOM      3  N   UNL     1      -0.033  -1.258  -0.668  1.00  0.00    -0.227 N 
ATOM      4  C   UNL     1      -1.881  -0.941   0.337  1.00  0.00     0.181 A 
ATOM      5  N   UNL     1      -1.337  -1.223  -0.865  1.00  0.00    -0.147 NA
ATOM      6  N   UNL     1      -0.948  -0.827   1.310  1.00  0.00    -0.215 NA
ATOM      7  C   UNL     1       0.199  -1.044   0.640  1.00  0.00     0.225 A 
BRANCH   4   8
ATOM      8  C   UNL     1      -3.335  -0.795   0.569  1.00  0.00     0.022 A 
ATOM      9  C   UNL     1      -5.623  -0.792  -0.285  1.00  0.00     0.057 A 
ATOM     10  C   UNL     1      -6.095  -0.514   1.008  1.00  0.00     0.026 A 
ATOM     11  C   UNL     1      -4.243  -0.960  -0.490  1.00  0.00     0.025 A 
ATOM     12  C   UNL     1      -5.202  -0.374   2.084  1.00  0.00     0.057 A 
ATOM     13  C   UNL     1      -3.822  -0.489   1.849  1.00  0.00     0.025 A 
BRANCH   9  14
ATOM     14  C   UNL     1      -6.592  -1.002  -1.422  1.00  0.00     0.416 C 
ATOM     15  F   UNL     1      -6.018  -0.640  -2.629  1.00  0.00    -0.166 F 
ATOM     16  F   UNL     1      -7.732  -0.237  -1.242  1.00  0.00    -0.166 F 
ATOM     17  F   UNL     1      -6.949  -2.336  -1.475  1.00  0.00    -0.166 F 
ENDBRANCH   9  14
BRANCH  12  18
ATOM     18  C   UNL     1      -5.712  -0.012   3.458  1.00  0.00     0.416 C 
ATOM     19  F   UNL     1      -6.993  -0.499   3.653  1.00  0.00    -0.166 F 
ATOM     20  F   UNL     1      -5.728   1.363   3.589  1.00  0.00    -0.166 F 
ATOM     21  F   UNL     1      -4.894  -0.549   4.438  1.00  0.00    -0.166 F 
ENDBRANCH  12  18
ENDBRANCH   4   8
ENDBRANCH   1   3
BRANCH   2  22
ATOM     22  C   UNL     1       2.608   0.102  -1.121  1.00  0.00     0.263 C 
ATOM     23  O   UNL     1       1.791   0.949  -0.668  1.00  0.00    -0.268 OA
ATOM     24  N   UNL     1       4.017   0.345  -1.024  1.00  0.00    -0.265 N 
ATOM     25  H   UNL     1       4.675  -0.358  -1.432  1.00  0.00     0.191 HD
BRANCH  24  26
ATOM     26  N   UNL     1       4.522   1.491  -0.383  1.00  0.00    -0.280 N 
ATOM     27  H   UNL     1       3.861   2.186   0.032  1.00  0.00     0.190 HD
BRANCH  26  28
ATOM     28  C   UNL     1       5.932   1.735  -0.280  1.00  0.00     0.163 A 
ATOM     29  N   UNL     1       6.828   0.862  -0.818  1.00  0.00    -0.235 NA
ATOM     30  C   UNL     1       6.408   2.878   0.376  1.00  0.00     0.159 A 
ATOM     31  C   UNL     1       8.166   1.078  -0.731  1.00  0.00     0.133 A 
ATOM     32  N   UNL     1       7.747   3.091   0.463  1.00  0.00    -0.259 NA
ATOM     33  C   UNL     1       8.636   2.217  -0.076  1.00  0.00     0.131 A 
ENDBRANCH  26  28
ENDBRANCH  24  26
ENDBRANCH   2  22
TORSDOF 7
