REMARK SMILES CNC(=O)c1ccc(N2C(=S)N(c3cnc(C#N)c(C(F)(F)F)c3)C(=O)C23CCC3)cc1F
REMARK SMILES IDX 9 1 10 2 11 3 12 4 25 5 26 6 27 7 28 8 29 9 30 10 8 11 5 12
REMARK SMILES IDX 6 13 32 14 7 15 31 16 33 17 3 18 1 19 2 20 4 22 13 23 24 24
REMARK SMILES IDX 14 25 19 26 15 27 16 28 20 29 21 30 22 31 23 32 17 33 18 34
REMARK H PARENT 2 21
REMARK Flexibility Score: inf
ROOT
ATOM      1  N   UNL     1       0.070  -0.658   0.363  1.00  0.00    -0.303 N 
ATOM      2  C   UNL     1      -0.895   0.353   0.680  1.00  0.00     0.188 C 
ATOM      3  S   UNL     1      -0.486   1.835   1.260  1.00  0.00    -0.039 S 
ATOM      4  N   UNL     1      -2.197   0.033   0.189  1.00  0.00    -0.253 N 
ATOM      5  C   UNL     1      -2.047  -1.223  -0.465  1.00  0.00     0.259 C 
ATOM      6  O   UNL     1      -3.001  -1.852  -0.998  1.00  0.00    -0.271 OA
ATOM      7  C   UNL     1      -0.631  -1.705  -0.398  1.00  0.00     0.127 C 
ATOM      8  C   UNL     1       0.002  -2.088  -1.735  1.00  0.00     0.039 C 
ATOM      9  C   UNL     1       0.219  -3.502  -1.200  1.00  0.00     0.006 C 
ATOM     10  C   UNL     1      -0.433  -3.122   0.129  1.00  0.00     0.039 C 
ENDROOT
BRANCH   1  11
ATOM     11  C   UNL     1       1.493  -0.491   0.465  1.00  0.00     0.047 A 
ATOM     12  C   UNL     1       4.277  -0.128   0.687  1.00  0.00     0.075 A 
ATOM     13  C   UNL     1       3.594  -0.985   1.568  1.00  0.00     0.019 A 
ATOM     14  C   UNL     1       3.549   0.540  -0.318  1.00  0.00     0.138 A 
ATOM     15  C   UNL     1       2.212  -1.157   1.463  1.00  0.00     0.027 A 
ATOM     16  C   UNL     1       2.165   0.364  -0.418  1.00  0.00     0.066 A 
ATOM     17  F   UNL     1       4.174   1.323  -1.233  1.00  0.00    -0.206 F 
BRANCH  12  18
ATOM     18  C   UNL     1       5.742   0.040   0.822  1.00  0.00     0.253 C 
ATOM     19  C   UNL     1       7.820   1.448   0.541  1.00  0.00     0.143 C 
ATOM     20  N   UNL     1       6.370   1.302   0.553  1.00  0.00    -0.355 N 
ATOM     21  H   UNL     1       5.785   2.156   0.411  1.00  0.00     0.163 HD
ATOM     22  O   UNL     1       6.442  -0.935   1.210  1.00  0.00    -0.269 OA
ENDBRANCH  12  18
ENDBRANCH   1  11
BRANCH   4  23
ATOM     23  C   UNL     1      -3.414   0.782   0.342  1.00  0.00     0.070 A 
ATOM     24  C   UNL     1      -4.291   0.944  -0.739  1.00  0.00     0.044 A 
ATOM     25  C   UNL     1      -3.755   1.347   1.575  1.00  0.00     0.139 A 
ATOM     26  C   UNL     1      -5.486   1.670  -0.590  1.00  0.00     0.094 A 
ATOM     27  N   UNL     1      -4.911   2.046   1.711  1.00  0.00    -0.243 NA
ATOM     28  C   UNL     1      -5.775   2.225   0.678  1.00  0.00     0.152 A 
BRANCH  26  29
ATOM     29  C   UNL     1      -6.430   1.855  -1.761  1.00  0.00     0.419 C 
ATOM     30  F   UNL     1      -7.669   1.326  -1.447  1.00  0.00    -0.166 F 
ATOM     31  F   UNL     1      -6.569   3.203  -2.036  1.00  0.00    -0.166 F 
ATOM     32  F   UNL     1      -5.965   1.223  -2.902  1.00  0.00    -0.166 F 
ENDBRANCH  26  29
BRANCH  28  33
ATOM     33  C   UNL     1      -6.976   2.986   0.916  1.00  0.00     0.120 C 
ATOM     34  N   UNL     1      -7.940   3.597   1.108  1.00  0.00    -0.191 NA
ENDBRANCH  28  33
ENDBRANCH   4  23
TORSDOF 5
