REMARK SMILES O=C(CCC/C=C\C[C@@H]1[C@@H](CC[C@@H](O)CCc2ccccc2)[C@H](O)C[C@@H]1O)OCCCCO[N+](=O)[O-]
REMARK SMILES IDX 5 1 6 2 7 3 8 4 9 5 10 6 23 7 25 8 26 9 11 10 12 11 13 12
REMARK SMILES IDX 14 13 15 15 16 16 17 17 18 18 22 19 19 20 21 21 20 22 24 23
REMARK SMILES IDX 27 25 4 27 3 28 2 29 1 30 28 31 29 32 30 33 31 34 32 35
REMARK SMILES IDX 33 36 34 37 36 38 35 39
REMARK H PARENT 14 14 24 24 27 26
REMARK Flexibility Score: inf
ROOT
ATOM      1  C   UNL     1       2.977  -0.332   0.145  1.00  0.00     0.027 C 
ENDROOT
BRANCH   1   2
ATOM      2  C   UNL     1       2.116  -0.447   1.378  1.00  0.00    -0.031 C 
ATOM      3  C   UNL     1       0.805  -0.753   1.391  1.00  0.00    -0.031 C 
BRANCH   3   4
ATOM      4  C   UNL     1      -0.061  -0.976   0.173  1.00  0.00     0.033 C 
BRANCH   4   5
ATOM      5  C   UNL     1      -1.170   0.096   0.095  1.00  0.00     0.027 C 
ATOM      6  C   UNL     1      -2.278  -0.244  -0.918  1.00  0.00     0.024 C 
ATOM      7  C   UNL     1      -2.903   1.109  -1.318  1.00  0.00     0.120 C 
ATOM      8  C   UNL     1      -1.947   2.194  -0.803  1.00  0.00     0.064 C 
ATOM      9  C   UNL     1      -0.677   1.478  -0.346  1.00  0.00     0.120 C 
BRANCH   6  10
ATOM     10  C   UNL     1      -3.322  -1.326  -0.501  1.00  0.00     0.009 C 
BRANCH  10  11
ATOM     11  C   UNL     1      -3.640  -1.521   1.002  1.00  0.00     0.032 C 
BRANCH  11  12
ATOM     12  C   UNL     1      -4.523  -0.462   1.705  1.00  0.00     0.114 C 
BRANCH  12  13
ATOM     13  O   UNL     1      -3.982   0.827   1.578  1.00  0.00    -0.393 OA
ATOM     14  H   UNL     1      -4.345   1.368   2.328  1.00  0.00     0.210 HD
ENDBRANCH  12  13
BRANCH  12  15
ATOM     15  C   UNL     1      -6.024  -0.510   1.311  1.00  0.00     0.036 C 
BRANCH  15  16
ATOM     16  C   UNL     1      -6.441   0.455   0.188  1.00  0.00     0.038 C 
BRANCH  16  17
ATOM     17  C   UNL     1      -7.938   0.434   0.008  1.00  0.00    -0.048 A 
ATOM     18  C   UNL     1      -8.754   1.274   0.783  1.00  0.00     0.004 A 
ATOM     19  C   UNL     1      -8.535  -0.473  -0.886  1.00  0.00     0.004 A 
ATOM     20  C   UNL     1     -10.145   1.217   0.654  1.00  0.00     0.000 A 
ATOM     21  C   UNL     1      -9.927  -0.525  -1.013  1.00  0.00     0.000 A 
ATOM     22  C   UNL     1     -10.732   0.317  -0.241  1.00  0.00     0.000 A 
ENDBRANCH  16  17
ENDBRANCH  15  16
ENDBRANCH  12  15
ENDBRANCH  11  12
ENDBRANCH  10  11
ENDBRANCH   6  10
BRANCH   7  23
ATOM     23  O   UNL     1      -3.028   1.206  -2.715  1.00  0.00    -0.393 OA
ATOM     24  H   UNL     1      -3.780   0.611  -2.972  1.00  0.00     0.210 HD
ENDBRANCH   7  23
BRANCH   9  25
ATOM     25  O   UNL     1       0.215   1.369  -1.428  1.00  0.00    -0.393 OA
ATOM     26  H   UNL     1       0.673   2.248  -1.508  1.00  0.00     0.210 HD
ENDBRANCH   9  25
ENDBRANCH   4   5
ENDBRANCH   3   4
ENDBRANCH   1   2
BRANCH   1  27
ATOM     27  C   UNL     1       3.410  -1.719  -0.359  1.00  0.00     0.016 C 
BRANCH  27  28
ATOM     28  C   UNL     1       4.466  -1.624  -1.475  1.00  0.00     0.123 C 
BRANCH  28  29
ATOM     29  C   UNL     1       5.867  -1.425  -0.960  1.00  0.00     0.305 C 
ATOM     30  O   UNL     1       6.839  -1.676  -1.723  1.00  0.00    -0.252 OA
BRANCH  29  31
ATOM     31  O   UNL     1       6.093  -0.943   0.335  1.00  0.00    -0.466 OA
BRANCH  31  32
ATOM     32  C   UNL     1       7.392  -0.666   0.857  1.00  0.00     0.233 C 
BRANCH  32  33
ATOM     33  C   UNL     1       7.941   0.638   0.265  1.00  0.00     0.044 C 
BRANCH  33  34
ATOM     34  C   UNL     1       9.222   1.121   0.965  1.00  0.00     0.031 C 
BRANCH  34  35
ATOM     35  C   UNL     1      10.436   0.215   0.714  1.00  0.00     0.208 C 
BRANCH  35  36
ATOM     36  O   UNL     1      10.700   0.074  -0.681  1.00  0.00    -0.314 OA
BRANCH  36  37
ATOM     37  N   UNL     1      11.250   1.087  -1.443  1.00  0.00     0.294 N 
ATOM     38  O   UNL     1      11.487   0.870  -2.779  1.00  0.00    -0.109 OA
ATOM     39  O   UNL     1      11.628   2.158  -0.922  1.00  0.00    -0.109 OA
ENDBRANCH  36  37
ENDBRANCH  35  36
ENDBRANCH  34  35
ENDBRANCH  33  34
ENDBRANCH  32  33
ENDBRANCH  31  32
ENDBRANCH  29  31
ENDBRANCH  28  29
ENDBRANCH  27  28
ENDBRANCH   1  27
TORSDOF 22
