REMARK SMILES Cn1cnc2c(F)c(Nc3ccc(Br)cc3F)c(C(=O)NOCCO)cc21
REMARK SMILES IDX 19 1 20 2 21 3 18 5 1 6 2 7 3 8 27 9 4 10 5 11 26 12 6 13
REMARK SMILES IDX 7 14 8 15 9 16 10 18 11 19 16 20 12 21 15 22 17 23 13 24
REMARK SMILES IDX 14 25 22 26 23 27 24 28 25 29
REMARK H PARENT 21 4 9 17 25 30
REMARK Flexibility Score: inf
ROOT
ATOM      1  C   UNL     1       1.555  -0.059   0.131  1.00  0.00     0.277 C 
ATOM      2  O   UNL     1       1.613   1.061   0.707  1.00  0.00    -0.267 OA
ATOM      3  N   UNL     1       2.741  -0.608  -0.459  1.00  0.00    -0.231 N 
ATOM      4  H   UNL     1       2.708  -1.524  -0.960  1.00  0.00     0.199 HD
ENDROOT
BRANCH   1   5
ATOM      5  C   UNL     1       0.270  -0.795   0.078  1.00  0.00     0.070 A 
ATOM      6  C   UNL     1      -0.226  -5.271   0.450  1.00  0.00     0.151 C 
ATOM      7  N   UNL     1      -1.190  -4.185   0.314  1.00  0.00    -0.334 N 
ATOM      8  C   UNL     1      -2.537  -4.289   0.217  1.00  0.00     0.200 A 
ATOM      9  C   UNL     1      -0.944  -2.871   0.205  1.00  0.00     0.072 A 
ATOM     10  N   UNL     1      -3.154  -3.088   0.060  1.00  0.00    -0.234 NA
ATOM     11  C   UNL     1      -2.127  -2.216   0.059  1.00  0.00     0.126 A 
ATOM     12  C   UNL     1       0.277  -2.203   0.216  1.00  0.00     0.045 A 
ATOM     13  C   UNL     1      -2.189  -0.835  -0.083  1.00  0.00     0.175 A 
ATOM     14  F   UNL     1      -3.384  -0.221  -0.275  1.00  0.00    -0.202 F 
ATOM     15  C   UNL     1      -0.975  -0.104  -0.063  1.00  0.00     0.090 A 
BRANCH  15  16
ATOM     16  N   UNL     1      -0.996   1.318  -0.273  1.00  0.00    -0.350 N 
ATOM     17  H   UNL     1      -0.342   1.714  -0.986  1.00  0.00     0.167 HD
BRANCH  16  18
ATOM     18  C   UNL     1      -1.911   2.215   0.382  1.00  0.00     0.075 A 
ATOM     19  C   UNL     1      -2.317   3.383  -0.281  1.00  0.00     0.030 A 
ATOM     20  C   UNL     1      -2.373   1.973   1.693  1.00  0.00     0.147 A 
ATOM     21  C   UNL     1      -3.196   4.278   0.334  1.00  0.00     0.018 A 
ATOM     22  C   UNL     1      -3.253   2.873   2.303  1.00  0.00     0.057 A 
ATOM     23  F   UNL     1      -1.949   0.893   2.396  1.00  0.00    -0.205 F 
ATOM     24  C   UNL     1      -3.669   4.022   1.624  1.00  0.00     0.021 A 
ATOM     25  Br  UNL     1      -4.869   5.248   2.464  1.00  0.00    -0.051 Br
ENDBRANCH  16  18
ENDBRANCH  15  16
ENDBRANCH   1   5
BRANCH   3  26
ATOM     26  O   UNL     1       3.936   0.029  -0.332  1.00  0.00    -0.271 OA
BRANCH  26  27
ATOM     27  C   UNL     1       4.108   0.800  -1.497  1.00  0.00     0.222 C 
BRANCH  27  28
ATOM     28  C   UNL     1       5.434   1.548  -1.414  1.00  0.00     0.187 C 
BRANCH  28  29
ATOM     29  O   UNL     1       5.646   2.297  -2.580  1.00  0.00    -0.394 OA
ATOM     30  H   UNL     1       5.068   3.101  -2.510  1.00  0.00     0.210 HD
ENDBRANCH  28  29
ENDBRANCH  27  28
ENDBRANCH  26  27
ENDBRANCH   3  26
TORSDOF 7
