REMARK SMILES O=C(O)c1cc(O)c2c(c1)C(C1c3cc(C(=O)O)cc(O)c3C(=O)c3c(OC4OC(CO)C(O)C(O)C4O)cccc31)c1cccc(OC3OC(CO)C(O)C(O)C3O)c1C2=O
REMARK SMILES IDX 47 1 60 2 61 3 62 4 8 5 9 6 10 7 4 8 5 9 6 10 11 11 43 12
REMARK SMILES IDX 44 13 45 14 46 15 48 16 49 17 51 18 50 19 54 20 56 21 58 22
REMARK SMILES IDX 52 23 53 24 55 26 57 28 59 30 12 32 42 33 13 34 41 35 25 36
REMARK SMILES IDX 22 37 14 38 40 39 26 40 23 41 20 42 15 43 39 44 24 45 19 46
REMARK SMILES IDX 27 47 28 48 29 49 37 50 30 51 35 52 33 53 38 54 31 56 32 57
REMARK SMILES IDX 36 59 34 61 21 63 16 65 17 66 18 67 7 69 2 71 1 72 3 73
REMARK H PARENT 53 25 55 27 57 29 59 31 38 55 32 58 36 60 34 62 21 64 18 68
REMARK H PARENT 7 70 3 74
REMARK Flexibility Score: inf
ROOT
ATOM      1  C   UNL     1       2.886  -0.635  -1.499  1.00  0.00     0.134 A 
ATOM      2  C   UNL     1       2.323  -0.800  -0.220  1.00  0.00     0.069 A 
ATOM      3  C   UNL     1       3.157  -0.640   0.983  1.00  0.00     0.201 C 
ATOM      4  O   UNL     1       4.203   0.115   1.032  1.00  0.00    -0.288 OA
ATOM      5  C   UNL     1       2.901  -1.593   2.031  1.00  0.00     0.068 A 
ATOM      6  C   UNL     1       1.606  -2.071   2.242  1.00  0.00    -0.024 A 
ATOM      7  C   UNL     1       1.421  -3.011   3.254  1.00  0.00     0.021 A 
ATOM      8  C   UNL     1       2.492  -3.708   3.808  1.00  0.00     0.063 A 
ATOM      9  C   UNL     1       3.761  -3.431   3.363  1.00  0.00     0.062 A 
ATOM     10  C   UNL     1       3.980  -2.377   2.454  1.00  0.00     0.127 A 
ATOM     11  C   UNL     1       0.500  -1.777   1.266  1.00  0.00     0.063 C 
ATOM     12  C   UNL     1       1.023  -1.317  -0.083  1.00  0.00    -0.025 A 
ATOM     13  C   UNL     1       0.242  -1.554  -1.218  1.00  0.00     0.005 A 
ATOM     14  C   UNL     1       0.764  -1.291  -2.498  1.00  0.00     0.004 A 
ATOM     15  C   UNL     1       2.097  -0.836  -2.624  1.00  0.00     0.047 A 
ENDROOT
BRANCH   1  16
ATOM     16  O   UNL     1       4.194  -0.203  -1.633  1.00  0.00    -0.461 OA
BRANCH  16  17
ATOM     17  C   UNL     1       4.530   0.744  -2.637  1.00  0.00     0.339 C 
ATOM     18  C   UNL     1       6.307   1.668  -1.496  1.00  0.00     0.179 C 
ATOM     19  O   UNL     1       5.028   1.957  -1.939  1.00  0.00    -0.332 OA
ATOM     20  C   UNL     1       7.203   1.545  -2.770  1.00  0.00     0.177 C 
ATOM     21  C   UNL     1       6.438   1.279  -4.072  1.00  0.00     0.180 C 
ATOM     22  C   UNL     1       5.519   0.126  -3.733  1.00  0.00     0.214 C 
BRANCH  18  23
ATOM     23  C   UNL     1       6.811   2.787  -0.548  1.00  0.00     0.191 C 
BRANCH  23  24
ATOM     24  O   UNL     1       7.091   4.031  -1.213  1.00  0.00    -0.394 OA
ATOM     25  H   UNL     1       8.112   4.143  -1.156  1.00  0.00     0.210 HD
ENDBRANCH  23  24
ENDBRANCH  18  23
BRANCH  20  26
ATOM     26  O   UNL     1       8.087   2.628  -3.045  1.00  0.00    -0.387 OA
ATOM     27  H   UNL     1       8.971   2.408  -2.551  1.00  0.00     0.211 HD
ENDBRANCH  20  26
BRANCH  21  28
ATOM     28  O   UNL     1       5.694   2.391  -4.536  1.00  0.00    -0.387 OA
ATOM     29  H   UNL     1       6.236   3.185  -4.240  1.00  0.00     0.211 HD
ENDBRANCH  21  28
BRANCH  22  30
ATOM     30  O   UNL     1       6.235  -0.966  -3.174  1.00  0.00    -0.384 OA
ATOM     31  H   UNL     1       6.982  -1.186  -3.830  1.00  0.00     0.211 HD
ENDBRANCH  22  30
ENDBRANCH  16  17
ENDBRANCH   1  16
BRANCH  11  32
ATOM     32  C   UNL     1      -0.661  -1.010   1.923  1.00  0.00     0.063 C 
ATOM     33  C   UNL     1      -1.970  -1.326   1.224  1.00  0.00    -0.025 A 
ATOM     34  C   UNL     1      -0.343   0.437   2.095  1.00  0.00    -0.024 A 
ATOM     35  C   UNL     1      -2.600  -2.560   1.434  1.00  0.00     0.005 A 
ATOM     36  C   UNL     1      -2.619  -0.324   0.490  1.00  0.00     0.069 A 
ATOM     37  C   UNL     1      -0.986   1.382   1.338  1.00  0.00     0.068 A 
ATOM     38  C   UNL     1       0.631   0.844   3.001  1.00  0.00     0.021 A 
ATOM     39  C   UNL     1      -3.950  -2.699   1.157  1.00  0.00     0.004 A 
ATOM     40  C   UNL     1      -3.995  -0.470   0.184  1.00  0.00     0.134 A 
ATOM     41  C   UNL     1      -1.972   0.991   0.348  1.00  0.00     0.201 C 
ATOM     42  C   UNL     1      -0.833   2.743   1.649  1.00  0.00     0.127 A 
ATOM     43  C   UNL     1       0.955   2.169   3.197  1.00  0.00     0.063 A 
ATOM     44  C   UNL     1      -4.624  -1.671   0.494  1.00  0.00     0.047 A 
ATOM     45  O   UNL     1      -2.334   1.796  -0.563  1.00  0.00    -0.288 OA
ATOM     46  C   UNL     1       0.160   3.137   2.581  1.00  0.00     0.062 A 
BRANCH  40  47
ATOM     47  O   UNL     1      -4.672   0.571  -0.448  1.00  0.00    -0.461 OA
BRANCH  47  48
ATOM     48  C   UNL     1      -5.882   0.355  -1.152  1.00  0.00     0.339 C 
ATOM     49  O   UNL     1      -6.962   0.408  -0.219  1.00  0.00    -0.332 OA
ATOM     50  C   UNL     1      -6.090   1.383  -2.309  1.00  0.00     0.214 C 
ATOM     51  C   UNL     1      -8.144  -0.102  -0.858  1.00  0.00     0.179 C 
ATOM     52  C   UNL     1      -7.311   0.872  -3.047  1.00  0.00     0.180 C 
ATOM     53  C   UNL     1      -8.510   0.779  -2.091  1.00  0.00     0.177 C 
BRANCH  50  54
ATOM     54  O   UNL     1      -6.324   2.700  -1.855  1.00  0.00    -0.384 OA
ATOM     55  H   UNL     1      -5.969   2.796  -0.921  1.00  0.00     0.211 HD
ENDBRANCH  50  54
BRANCH  51  56
ATOM     56  C   UNL     1      -9.319  -0.159   0.129  1.00  0.00     0.191 C 
BRANCH  56  57
ATOM     57  O   UNL     1     -10.345  -1.018  -0.286  1.00  0.00    -0.394 OA
ATOM     58  H   UNL     1      -9.977  -1.673  -0.968  1.00  0.00     0.210 HD
ENDBRANCH  56  57
ENDBRANCH  51  56
BRANCH  52  59
ATOM     59  O   UNL     1      -7.620   1.708  -4.111  1.00  0.00    -0.387 OA
ATOM     60  H   UNL     1      -8.383   1.330  -4.599  1.00  0.00     0.211 HD
ENDBRANCH  52  59
BRANCH  53  61
ATOM     61  O   UNL     1      -9.595   0.226  -2.811  1.00  0.00    -0.387 OA
ATOM     62  H   UNL     1     -10.397   0.660  -2.505  1.00  0.00     0.211 HD
ENDBRANCH  53  61
ENDBRANCH  47  48
ENDBRANCH  40  47
BRANCH  42  63
ATOM     63  O   UNL     1      -1.660   3.706   1.049  1.00  0.00    -0.507 OA
ATOM     64  H   UNL     1      -1.407   4.701   1.106  1.00  0.00     0.293 HD
ENDBRANCH  42  63
BRANCH  43  65
ATOM     65  C   UNL     1       2.042   2.561   4.125  1.00  0.00     0.335 C 
ATOM     66  O   UNL     1       2.665   1.689   4.805  1.00  0.00    -0.246 OA
BRANCH  65  67
ATOM     67  O   UNL     1       2.536   3.851   4.086  1.00  0.00    -0.478 OA
ATOM     68  H   UNL     1       3.287   4.135   4.706  1.00  0.00     0.297 HD
ENDBRANCH  65  67
ENDBRANCH  43  65
ENDBRANCH  11  32
BRANCH  10  69
ATOM     69  O   UNL     1       5.254  -2.141   1.880  1.00  0.00    -0.507 OA
ATOM     70  H   UNL     1       5.918  -2.859   1.653  1.00  0.00     0.293 HD
ENDBRANCH  10  69
BRANCH   8  71
ATOM     71  C   UNL     1       2.225  -4.761   4.803  1.00  0.00     0.335 C 
ATOM     72  O   UNL     1       1.058  -5.254   4.976  1.00  0.00    -0.246 OA
BRANCH  71  73
ATOM     73  O   UNL     1       3.311  -5.322   5.527  1.00  0.00    -0.478 OA
ATOM     74  H   UNL     1       3.133  -6.072   6.207  1.00  0.00     0.297 HD
ENDBRANCH  71  73
ENDBRANCH   8  71
TORSDOF 21
