REMARK SMILES O=C1/C(=C2\Nc3ccc(S(=O)(=O)O)cc3C2=O)Nc2ccc(S(=O)(=O)O)cc21
REMARK SMILES IDX 22 1 27 2 28 3 19 4 18 5 3 6 2 7 1 8 4 9 5 10 6 11 15 12
REMARK SMILES IDX 14 13 9 14 8 15 7 16 16 17 17 18 20 19 21 20 23 23 24 24
REMARK SMILES IDX 25 25 26 26 10 28 11 29 12 30 13 31
REMARK H PARENT 18 21 5 22 26 27 13 32
REMARK Flexibility Score: inf
ROOT
ATOM      1  C   UNL     1       5.334   0.169  -0.228  1.00  0.00     0.095 A 
ATOM      2  C   UNL     1       4.202  -0.231  -0.965  1.00  0.00     0.037 A 
ATOM      3  C   UNL     1       2.944  -0.009  -0.410  1.00  0.00     0.049 A 
ATOM      4  C   UNL     1       2.788   0.579   0.826  1.00  0.00     0.050 A 
ATOM      5  N   UNL     1       1.417   0.703   1.194  1.00  0.00    -0.350 N 
ATOM      6  C   UNL     1       0.667   0.149   0.103  1.00  0.00     0.115 C 
ATOM      7  C   UNL     1       1.618  -0.307  -0.922  1.00  0.00     0.213 C 
ATOM      8  O   UNL     1       1.358  -0.850  -2.028  1.00  0.00    -0.287 OA
ATOM      9  C   UNL     1      -0.676   0.073   0.057  1.00  0.00     0.115 C 
ATOM     10  N   UNL     1      -1.425  -0.481  -1.034  1.00  0.00    -0.350 N 
ATOM     11  C   UNL     1      -2.797  -0.358  -0.665  1.00  0.00     0.050 A 
ATOM     12  C   UNL     1      -2.952   0.231   0.570  1.00  0.00     0.049 A 
ATOM     13  C   UNL     1      -4.210   0.446   1.129  1.00  0.00     0.037 A 
ATOM     14  C   UNL     1      -5.342   0.047   0.391  1.00  0.00     0.095 A 
ATOM     15  C   UNL     1      -5.181  -0.564  -0.875  1.00  0.00     0.025 A 
ATOM     16  C   UNL     1      -3.899  -0.769  -1.412  1.00  0.00     0.028 A 
ATOM     17  C   UNL     1      -1.627   0.530   1.082  1.00  0.00     0.213 C 
ATOM     18  O   UNL     1      -1.367   1.072   2.188  1.00  0.00    -0.287 OA
ATOM     19  C   UNL     1       3.890   0.977   1.579  1.00  0.00     0.028 A 
ATOM     20  C   UNL     1       5.173   0.767   1.045  1.00  0.00     0.025 A 
ATOM     21  H   UNL     1       1.062   1.114   2.085  1.00  0.00     0.167 HD
ATOM     22  H   UNL     1      -1.071  -0.898  -1.922  1.00  0.00     0.167 HD
ENDROOT
BRANCH   1  23
ATOM     23  S   UNL     1       6.948  -0.102  -0.875  1.00  0.00     0.294 S 
ATOM     24  O   UNL     1       6.903  -0.064  -2.377  1.00  0.00    -0.194 OA
ATOM     25  O   UNL     1       7.882   0.975  -0.397  1.00  0.00    -0.194 OA
BRANCH  23  26
ATOM     26  O   UNL     1       7.514  -1.603  -0.374  1.00  0.00    -0.282 OA
ATOM     27  H   UNL     1       7.523  -1.555   0.615  1.00  0.00     0.234 HD
ENDBRANCH  23  26
ENDBRANCH   1  23
BRANCH  14  28
ATOM     28  S   UNL     1      -6.955   0.281   1.056  1.00  0.00     0.294 S 
ATOM     29  O   UNL     1      -6.959   1.479   1.964  1.00  0.00    -0.194 OA
ATOM     30  O   UNL     1      -7.940   0.519  -0.055  1.00  0.00    -0.194 OA
BRANCH  28  31
ATOM     31  O   UNL     1      -7.409  -1.080   1.932  1.00  0.00    -0.282 OA
ATOM     32  H   UNL     1      -7.391  -1.823   1.276  1.00  0.00     0.234 HD
ENDBRANCH  28  31
ENDBRANCH  14  28
TORSDOF 4
