REMARK SMILES CN(C)C(=O)c1cc2cnc(Nc3ccc(N4CCNCC4)cn3)nc2n1C1CCCC1
REMARK SMILES IDX 12 1 11 3 6 4 7 5 27 6 8 7 26 8 9 9 25 10 10 11 4 12 1 13
REMARK SMILES IDX 2 14 3 15 5 16 28 17 29 18 32 19 30 20 31 21 13 22 14 23
REMARK SMILES IDX 24 24 15 25 23 26 16 27 17 28 18 29 22 30 19 31 21 32 20 33
REMARK H PARENT 12 2 20 34
REMARK Flexibility Score: inf
ROOT
ATOM      1  N   UNL     1       1.117   0.900  -0.988  1.00  0.00    -0.309 N 
ATOM      2  H   UNL     1       0.849   1.732  -1.563  1.00  0.00     0.171 HD
ENDROOT
BRANCH   1   3
ATOM      3  C   UNL     1       0.050   0.052  -0.533  1.00  0.00     0.230 A 
ATOM      4  C   UNL     1      -4.150  -1.348  -0.055  1.00  0.00     0.109 A 
ATOM      5  C   UNL     1      -3.194  -2.183   0.521  1.00  0.00     0.045 A 
ATOM      6  N   UNL     1      -3.579  -0.225  -0.586  1.00  0.00    -0.318 N 
ATOM      7  C   UNL     1      -1.997  -1.551   0.299  1.00  0.00     0.038 A 
ATOM      8  C   UNL     1      -2.252  -0.396  -0.375  1.00  0.00     0.146 A 
ATOM      9  C   UNL     1      -0.692  -1.929   0.575  1.00  0.00     0.127 A 
ATOM     10  N   UNL     1      -1.243   0.402  -0.808  1.00  0.00    -0.194 NA
ATOM     11  N   UNL     1       0.311  -1.108   0.152  1.00  0.00    -0.221 NA
BRANCH   4  12
ATOM     12  C   UNL     1      -5.568  -1.728  -0.207  1.00  0.00     0.270 C 
ATOM     13  C   UNL     1      -5.930  -1.794   2.294  1.00  0.00     0.146 C 
ATOM     14  N   UNL     1      -6.379  -2.092   0.929  1.00  0.00    -0.343 N 
ATOM     15  C   UNL     1      -7.704  -2.677   0.702  1.00  0.00     0.146 C 
ATOM     16  O   UNL     1      -6.068  -1.738  -1.364  1.00  0.00    -0.267 OA
ENDBRANCH   4  12
BRANCH   6  17
ATOM     17  C   UNL     1      -4.277   0.847  -1.335  1.00  0.00     0.089 C 
ATOM     18  C   UNL     1      -3.431   2.094  -1.584  1.00  0.00     0.025 C 
ATOM     19  C   UNL     1      -5.496   1.385  -0.576  1.00  0.00     0.025 C 
ATOM     20  C   UNL     1      -4.436   3.203  -1.827  1.00  0.00     0.002 C 
ATOM     21  C   UNL     1      -5.644   2.855  -0.967  1.00  0.00     0.002 C 
ENDBRANCH   6  17
ENDBRANCH   1   3
BRANCH   1  22
ATOM     22  C   UNL     1       2.513   0.691  -0.709  1.00  0.00     0.132 A 
ATOM     23  C   UNL     1       3.471   1.538  -1.281  1.00  0.00     0.049 A 
ATOM     24  N   UNL     1       2.921  -0.316   0.112  1.00  0.00    -0.237 NA
ATOM     25  C   UNL     1       4.824   1.336  -1.005  1.00  0.00     0.031 A 
ATOM     26  C   UNL     1       4.232  -0.534   0.396  1.00  0.00     0.139 A 
ATOM     27  C   UNL     1       5.222   0.293  -0.156  1.00  0.00     0.055 A 
BRANCH  27  28
ATOM     28  N   UNL     1       6.617   0.075   0.131  1.00  0.00    -0.368 N 
ATOM     29  C   UNL     1       7.425   1.163   0.693  1.00  0.00     0.132 C 
ATOM     30  C   UNL     1       7.148  -1.288   0.226  1.00  0.00     0.132 C 
ATOM     31  C   UNL     1       8.872   1.047   0.200  1.00  0.00     0.102 C 
ATOM     32  C   UNL     1       8.607  -1.317  -0.244  1.00  0.00     0.102 C 
ATOM     33  N   UNL     1       9.411  -0.297   0.445  1.00  0.00    -0.313 NA
ATOM     34  H   UNL     1       9.395  -0.489   1.475  1.00  0.00     0.122 HD
ENDBRANCH  27  28
ENDBRANCH   1  22
TORSDOF 5
