REMARK SMILES C[C@H]1CCC[C@H](O)CCCCCc2cc(O)cc(O)c2C(=O)O1
REMARK SMILES IDX 11 1 12 2 13 3 20 4 18 5 14 6 17 7 15 8 21 9 22 10 23 11
REMARK SMILES IDX 2 12 1 13 3 14 19 16 16 18 10 20 9 21 8 22 6 23 5 24 4 25
REMARK SMILES IDX 7 27
REMARK H PARENT 19 17 16 19 7 28
REMARK Flexibility Score: 50.00
ROOT
ATOM      1  C   UNL     1      -0.488  -3.081  -0.149  1.00  0.00     0.005 C 
ENDROOT
BRANCH   1   2
ATOM      2  C   UNL     1      -1.013  -2.073  -1.203  1.00  0.00     0.037 C 
BRANCH   2   3
ATOM      3  C   UNL     1      -1.930  -0.961  -0.692  1.00  0.00    -0.026 A 
ATOM      4  C   UNL     1      -1.936   0.333  -1.297  1.00  0.00     0.105 A 
ATOM      5  C   UNL     1      -2.943   1.264  -0.949  1.00  0.00     0.134 A 
ATOM      6  C   UNL     1      -2.913  -1.254   0.276  1.00  0.00     0.051 A 
ATOM      7  C   UNL     1      -3.864   0.954   0.051  1.00  0.00     0.093 A 
ATOM      8  C   UNL     1      -3.851  -0.298   0.664  1.00  0.00     0.119 A 
BRANCH   4   9
ATOM      9  C   UNL     1      -0.943   0.704  -2.330  1.00  0.00     0.342 C 
ATOM     10  O   UNL     1      -1.100   0.249  -3.493  1.00  0.00    -0.246 OA
BRANCH   9  11
ATOM     11  O   UNL     1       0.165   1.542  -2.085  1.00  0.00    -0.459 OA
BRANCH  11  12
ATOM     12  C   UNL     1       0.613   2.099  -0.836  1.00  0.00     0.173 C 
ATOM     13  C   UNL     1      -0.149   3.384  -0.496  1.00  0.00     0.053 C 
BRANCH  12  14
ATOM     14  C   UNL     1       0.566   1.067   0.304  1.00  0.00     0.045 CG0
ATOM     15  G   UNL     1       1.506   1.344   1.486  1.00  0.00     0.000 G0
ENDBRANCH  12  14
ENDBRANCH  11  12
ENDBRANCH   9  11
ENDBRANCH   4   9
BRANCH   5  16
ATOM     16  O   UNL     1      -3.069   2.495  -1.598  1.00  0.00    -0.507 OA
ATOM     17  H   UNL     1      -2.471   2.777  -2.365  1.00  0.00     0.293 HD
ENDBRANCH   5  16
BRANCH   8  18
ATOM     18  O   UNL     1      -4.786  -0.615   1.648  1.00  0.00    -0.508 OA
ATOM     19  H   UNL     1      -5.485   0.053   1.949  1.00  0.00     0.293 HD
ENDBRANCH   8  18
ENDBRANCH   2   3
ENDBRANCH   1   2
BRANCH   1  20
ATOM     20  C   UNL     1       0.493  -2.480   0.875  1.00  0.00     0.000 C 
BRANCH  20  21
ATOM     21  C   UNL     1       1.917  -2.345   0.298  1.00  0.00     0.003 C 
BRANCH  21  22
ATOM     22  C   UNL     1       2.858  -1.476   1.179  1.00  0.00     0.032 C 
BRANCH  22  23
ATOM     23  C   UNL     1       3.438  -0.180   0.519  1.00  0.00     0.114 C 
BRANCH  23  24
ATOM     24  C   UNL     1       3.010   1.142   1.211  1.00  0.00     0.032 C 
BRANCH  24  25
ATOM     25  C   UNL     1       1.506   1.344   1.486  1.00  0.00     0.006 CG0
ATOM     26  G   UNL     1       0.566   1.067   0.304  1.00  0.00     0.000 G0
ENDBRANCH  24  25
ENDBRANCH  23  24
BRANCH  23  27
ATOM     27  O   UNL     1       3.181  -0.113  -0.862  1.00  0.00    -0.393 OA
ATOM     28  H   UNL     1       3.837   0.522  -1.255  1.00  0.00     0.210 HD
ENDBRANCH  23  27
ENDBRANCH  22  23
ENDBRANCH  21  22
ENDBRANCH  20  21
ENDBRANCH   1  20
TORSDOF 3
