REMARK SMILES O=C(O)c1ccc2nc(-c3cc(Cl)cc(Cl)c3)oc2c1
REMARK SMILES IDX 4 1 5 2 6 3 7 4 8 5 9 6 18 7 19 8 20 9 2 10 1 11 3 12 10 14
REMARK SMILES IDX 11 15 17 16 12 17 15 18 13 19 14 20 16 21
REMARK H PARENT 3 13
REMARK Flexibility Score: inf
ROOT
ATOM      1  C   UNL     1       3.605   0.059  -0.157  1.00  0.00     0.063 A 
ATOM      2  C   UNL     1       3.440   0.501  -1.500  1.00  0.00     0.018 A 
ATOM      3  C   UNL     1       2.156   0.658  -2.054  1.00  0.00     0.033 A 
ATOM      4  C   UNL     1       1.063   0.368  -1.245  1.00  0.00     0.110 A 
ATOM      5  N   UNL     1      -0.241   0.445  -1.559  1.00  0.00    -0.209 NA
ATOM      6  C   UNL     1      -0.837   0.049  -0.401  1.00  0.00     0.227 A 
ATOM      7  O   UNL     1       0.029  -0.250   0.555  1.00  0.00    -0.436 OA
ATOM      8  C   UNL     1       1.212  -0.054   0.038  1.00  0.00     0.156 A 
ATOM      9  C   UNL     1       2.461  -0.224   0.627  1.00  0.00     0.065 A 
ENDROOT
BRANCH   1  10
ATOM     10  C   UNL     1       4.957  -0.105   0.420  1.00  0.00     0.335 C 
ATOM     11  O   UNL     1       5.981   0.145  -0.272  1.00  0.00    -0.246 OA
BRANCH  10  12
ATOM     12  O   UNL     1       5.111  -0.537   1.734  1.00  0.00    -0.478 OA
ATOM     13  H   UNL     1       6.032  -0.653   2.140  1.00  0.00     0.297 HD
ENDBRANCH  10  12
ENDBRANCH   1  10
BRANCH   6  14
ATOM     14  C   UNL     1      -2.301  -0.038  -0.226  1.00  0.00     0.040 A 
ATOM     15  C   UNL     1      -2.842  -0.456   1.002  1.00  0.00     0.034 A 
ATOM     16  C   UNL     1      -3.170   0.294  -1.280  1.00  0.00     0.034 A 
ATOM     17  C   UNL     1      -4.228  -0.541   1.173  1.00  0.00     0.043 A 
ATOM     18  C   UNL     1      -4.556   0.208  -1.107  1.00  0.00     0.043 A 
ATOM     19  Cl  UNL     1      -4.892  -1.064   2.710  1.00  0.00    -0.084 Cl
ATOM     20  C   UNL     1      -5.084  -0.209   0.119  1.00  0.00     0.041 A 
ATOM     21  Cl  UNL     1      -5.633   0.624  -2.428  1.00  0.00    -0.084 Cl
ENDBRANCH   6  14
TORSDOF 3
