REMARK SMILES CC(C)(CCCCCC(O)CCCCCC(C)(C)C(=O)O)C(=O)O
REMARK SMILES IDX 9 1 8 2 7 3 6 4 5 5 4 6 2 7 1 8 3 9 22 10 23 11 24 12 10 14
REMARK SMILES IDX 11 16 12 17 13 18 14 19 15 20 16 21 17 22 18 23 19 24 20 25
REMARK SMILES IDX 21 26
REMARK H PARENT 24 13 10 15 21 27
REMARK Flexibility Score: inf
ROOT
ATOM      1  C   UNL     1      -0.263   0.508   0.576  1.00  0.00     0.114 C 
ENDROOT
BRANCH   1   2
ATOM      2  C   UNL     1      -0.932   1.794   1.129  1.00  0.00     0.032 C 
BRANCH   2   3
ATOM      3  C   UNL     1      -2.462   1.682   1.244  1.00  0.00     0.003 C 
BRANCH   3   4
ATOM      4  C   UNL     1      -3.167   1.680  -0.123  1.00  0.00     0.000 C 
BRANCH   4   5
ATOM      5  C   UNL     1      -4.692   1.835  -0.015  1.00  0.00     0.001 C 
BRANCH   5   6
ATOM      6  C   UNL     1      -5.438   0.781   0.842  1.00  0.00     0.018 C 
BRANCH   6   7
ATOM      7  C   UNL     1      -5.495  -0.699   0.331  1.00  0.00     0.062 C 
ATOM      8  C   UNL     1      -4.230  -1.492   0.732  1.00  0.00     0.023 C 
ATOM      9  C   UNL     1      -5.666  -0.771  -1.204  1.00  0.00     0.023 C 
BRANCH   7  10
ATOM     10  C   UNL     1      -6.684  -1.367   1.004  1.00  0.00     0.309 C 
ATOM     11  O   UNL     1      -6.669  -1.573   2.249  1.00  0.00    -0.252 OA
BRANCH  10  12
ATOM     12  O   UNL     1      -7.821  -1.712   0.273  1.00  0.00    -0.481 OA
ATOM     13  H   UNL     1      -8.617  -2.146   0.724  1.00  0.00     0.296 HD
ENDBRANCH  10  12
ENDBRANCH   7  10
ENDBRANCH   6   7
ENDBRANCH   5   6
ENDBRANCH   4   5
ENDBRANCH   3   4
ENDBRANCH   2   3
ENDBRANCH   1   2
BRANCH   1  14
ATOM     14  O   UNL     1      -0.446   0.370  -0.812  1.00  0.00    -0.393 OA
ATOM     15  H   UNL     1      -0.180   1.223  -1.245  1.00  0.00     0.210 HD
ENDBRANCH   1  14
BRANCH   1  16
ATOM     16  C   UNL     1       1.235   0.408   0.940  1.00  0.00     0.032 C 
BRANCH  16  17
ATOM     17  C   UNL     1       2.109   1.509   0.308  1.00  0.00     0.003 C 
BRANCH  17  18
ATOM     18  C   UNL     1       3.551   1.509   0.850  1.00  0.00     0.000 C 
BRANCH  18  19
ATOM     19  C   UNL     1       4.345   0.217   0.580  1.00  0.00     0.001 C 
BRANCH  19  20
ATOM     20  C   UNL     1       4.500  -0.087  -0.925  1.00  0.00     0.018 C 
BRANCH  20  21
ATOM     21  C   UNL     1       5.538  -1.202  -1.249  1.00  0.00     0.062 C 
ATOM     22  C   UNL     1       5.118  -2.534  -0.587  1.00  0.00     0.023 C 
ATOM     23  C   UNL     1       5.579  -1.409  -2.776  1.00  0.00     0.023 C 
BRANCH  21  24
ATOM     24  C   UNL     1       6.929  -0.794  -0.795  1.00  0.00     0.309 C 
ATOM     25  O   UNL     1       7.359   0.366  -1.040  1.00  0.00    -0.252 OA
BRANCH  24  26
ATOM     26  O   UNL     1       7.761  -1.705  -0.148  1.00  0.00    -0.481 OA
ATOM     27  H   UNL     1       8.696  -1.442   0.140  1.00  0.00     0.296 HD
ENDBRANCH  24  26
ENDBRANCH  21  24
ENDBRANCH  20  21
ENDBRANCH  19  20
ENDBRANCH  18  19
ENDBRANCH  17  18
ENDBRANCH  16  17
ENDBRANCH   1  16
TORSDOF 17
