REMARK SMILES CCCCOCCOc1ccc(-c2ccc3c(c2)/C=C(/C(=O)Nc2ccc([S@@](=O)Cc4cncn4CCC)cc2)CCCN3CC(C)C)cc1
REMARK SMILES IDX 13 1 18 2 17 3 16 4 15 5 14 6 12 7 9 8 10 9 50 10 11 11
REMARK SMILES IDX 49 12 8 13 7 14 6 15 5 16 4 17 3 18 2 19 1 20 19 21 20 22
REMARK SMILES IDX 41 23 21 25 22 26 23 27 24 29 25 30 40 31 26 32 39 33 27 34
REMARK SMILES IDX 28 35 29 36 30 37 31 38 32 39 35 40 33 41 34 42 36 43 37 44
REMARK SMILES IDX 38 45 44 46 45 47 46 48 47 49 48 50 43 51 42 52
REMARK H PARENT 23 28
REMARK Flexibility Score: 100.00
ROOT
ATOM      1  C   UNL     1       2.921  -1.175   1.634  1.00  0.00    -0.018 A 
ATOM      2  C   UNL     1       1.652  -0.960   1.074  1.00  0.00     0.019 A 
ATOM      3  C   UNL     1       0.788  -2.030   0.805  1.00  0.00    -0.001 A 
ATOM      4  C   UNL     1       1.217  -3.365   1.054  1.00  0.00     0.044 A 
ATOM      5  C   UNL     1       2.457  -3.555   1.695  1.00  0.00     0.027 A 
ATOM      6  C   UNL     1       3.299  -2.478   1.977  1.00  0.00     0.011 A 
ENDROOT
BRANCH   1   7
ATOM      7  C   UNL     1       3.846  -0.040   1.862  1.00  0.00    -0.018 A 
ATOM      8  C   UNL     1       5.673   2.072   2.272  1.00  0.00     0.119 A 
ATOM      9  C   UNL     1       4.927   1.997   1.080  1.00  0.00     0.047 A 
ATOM     10  C   UNL     1       5.474   1.102   3.261  1.00  0.00     0.047 A 
ATOM     11  C   UNL     1       4.021   0.949   0.878  1.00  0.00     0.012 A 
ATOM     12  C   UNL     1       4.574   0.053   3.060  1.00  0.00     0.012 A 
BRANCH   8  13
ATOM     13  O   UNL     1       6.616   3.085   2.515  1.00  0.00    -0.491 OA
BRANCH  13  14
ATOM     14  C   UNL     1       7.163   3.964   1.530  1.00  0.00     0.258 C 
BRANCH  14  15
ATOM     15  C   UNL     1       8.073   3.192   0.572  1.00  0.00     0.201 C 
BRANCH  15  16
ATOM     16  O   UNL     1       8.796   4.114  -0.221  1.00  0.00    -0.378 OA
BRANCH  16  17
ATOM     17  C   UNL     1       9.533   3.447  -1.232  1.00  0.00     0.160 C 
BRANCH  17  18
ATOM     18  C   UNL     1      10.839   2.824  -0.702  1.00  0.00     0.028 C 
BRANCH  18  19
ATOM     19  C   UNL     1      11.691   3.794   0.134  1.00  0.00    -0.001 C 
ATOM     20  C   UNL     1      12.272   4.935  -0.703  1.00  0.00     0.004 C 
ENDBRANCH  18  19
ENDBRANCH  17  18
ENDBRANCH  16  17
ENDBRANCH  15  16
ENDBRANCH  14  15
ENDBRANCH  13  14
ENDBRANCH   8  13
ENDBRANCH   1   7
BRANCH   3  21
ATOM     21  C   UNL     1      -0.578  -1.671   0.373  1.00  0.00     0.019 C 
ATOM     22  C   UNL     1      -1.667  -1.957   1.114  1.00  0.00     0.018 C 
BRANCH  22  23
ATOM     23  C   UNL     1      -1.555  -2.853   2.328  1.00  0.00     0.043 CG0
ATOM     24  G   UNL     1      -1.575  -4.345   1.957  1.00  0.00     0.000 G0
ENDBRANCH  22  23
BRANCH  22  25
ATOM     25  C   UNL     1      -3.009  -1.502   0.686  1.00  0.00     0.251 C 
ATOM     26  O   UNL     1      -4.021  -2.196   0.979  1.00  0.00    -0.269 OA
ATOM     27  N   UNL     1      -3.173  -0.246   0.008  1.00  0.00    -0.322 N 
ATOM     28  H   UNL     1      -2.424   0.475   0.115  1.00  0.00     0.170 HD
BRANCH  27  29
ATOM     29  C   UNL     1      -4.397   0.143  -0.633  1.00  0.00     0.041 A 
ATOM     30  C   UNL     1      -5.160  -0.783  -1.365  1.00  0.00     0.027 A 
ATOM     31  C   UNL     1      -4.815   1.481  -0.572  1.00  0.00     0.027 A 
ATOM     32  C   UNL     1      -6.338  -0.380  -2.000  1.00  0.00     0.020 A 
ATOM     33  C   UNL     1      -5.997   1.880  -1.199  1.00  0.00     0.020 A 
ATOM     34  C   UNL     1      -6.766   0.951  -1.909  1.00  0.00     0.039 A 
BRANCH  34  35
ATOM     35  S   UNL     1      -8.279   1.477  -2.686  1.00  0.00     0.059 S 
ATOM     36  O   UNL     1      -8.125   1.045  -4.139  1.00  0.00    -0.254 OA
BRANCH  35  37
ATOM     37  C   UNL     1      -9.572   0.404  -2.026  1.00  0.00     0.166 C 
BRANCH  37  38
ATOM     38  C   UNL     1      -9.682   0.574  -0.541  1.00  0.00     0.050 A 
ATOM     39  C   UNL     1      -9.093  -0.240   0.401  1.00  0.00     0.135 A 
ATOM     40  N   UNL     1     -10.336   1.563   0.103  1.00  0.00    -0.334 N 
ATOM     41  N   UNL     1      -9.393   0.216   1.635  1.00  0.00    -0.245 NA
ATOM     42  C   UNL     1     -10.158   1.304   1.416  1.00  0.00     0.199 A 
BRANCH  40  43
ATOM     43  C   UNL     1     -11.131   2.662  -0.459  1.00  0.00     0.123 C 
BRANCH  43  44
ATOM     44  C   UNL     1     -10.608   4.029  -0.000  1.00  0.00     0.018 C 
ATOM     45  C   UNL     1      -9.185   4.292  -0.489  1.00  0.00     0.006 C 
ENDBRANCH  43  44
ENDBRANCH  40  43
ENDBRANCH  37  38
ENDBRANCH  35  37
ENDBRANCH  34  35
ENDBRANCH  27  29
ENDBRANCH  22  25
ENDBRANCH   3  21
BRANCH   4  46
ATOM     46  N   UNL     1       0.513  -4.531   0.537  1.00  0.00    -0.371 N 
BRANCH  46  47
ATOM     47  C   UNL     1       1.286  -5.573  -0.178  1.00  0.00     0.119 C 
BRANCH  47  48
ATOM     48  C   UNL     1       2.114  -4.990  -1.349  1.00  0.00     0.002 C 
ATOM     49  C   UNL     1       1.224  -4.264  -2.366  1.00  0.00     0.009 C 
ATOM     50  C   UNL     1       2.900  -6.108  -2.049  1.00  0.00     0.009 C 
ENDBRANCH  47  48
ENDBRANCH  46  47
BRANCH  46  51
ATOM     51  C   UNL     1      -0.955  -4.692   0.587  1.00  0.00     0.117 C 
BRANCH  51  52
ATOM     52  C   UNL     1      -1.575  -4.345   1.957  1.00  0.00     0.026 CG0
ATOM     53  G   UNL     1      -1.555  -2.853   2.328  1.00  0.00     0.000 G0
ENDBRANCH  51  52
ENDBRANCH  46  51
ENDBRANCH   4  46
TORSDOF 17
