REMARK SMILES C[C@@H](c1nc(-c2ccc(C#N)cc2)cs1)[C@](O)(Cn1cncn1)c1cc(F)ccc1F
REMARK SMILES IDX 1 1 2 2 3 3 4 4 15 5 5 6 14 7 6 8 7 9 13 10 8 11 12 12 9 13
REMARK SMILES IDX 10 14 11 15 16 16 17 17 18 19 19 20 20 21 23 22 21 23 22 24
REMARK SMILES IDX 24 25 30 26 25 27 31 28 29 29 26 30 28 31 27 32
REMARK H PARENT 17 18
REMARK Flexibility Score: inf
ROOT
ATOM      1  C   UNL     1      -1.133  -0.025   2.366  1.00  0.00     0.019 C 
ATOM      2  C   UNL     1      -0.192   0.456   1.227  1.00  0.00     0.084 C 
ENDROOT
BRANCH   2   3
ATOM      3  C   UNL     1       1.012  -0.438   1.002  1.00  0.00     0.099 A 
ATOM      4  N   UNL     1       0.957  -1.728   0.890  1.00  0.00    -0.241 NA
ATOM      5  S   UNL     1       0.867  -2.246   0.844  1.00  0.00    -0.126 S 
ATOM      6  C   UNL     1       2.168  -2.257   0.744  1.00  0.00     0.081 A 
ATOM      7  C   UNL     1       2.154  -3.549   1.022  1.00  0.00     0.095 A 
BRANCH   6   8
ATOM      8  C   UNL     1       3.357  -1.685  -0.101  1.00  0.00     0.001 A 
ATOM      9  C   UNL     1       3.126  -0.936  -1.268  1.00  0.00     0.012 A 
ATOM     10  C   UNL     1       4.683  -1.884   0.341  1.00  0.00     0.012 A 
ATOM     11  C   UNL     1       4.196  -0.355  -1.956  1.00  0.00     0.020 A 
ATOM     12  C   UNL     1       5.748  -1.274  -0.333  1.00  0.00     0.020 A 
ATOM     13  C   UNL     1       5.507  -0.500  -1.477  1.00  0.00     0.052 A 
BRANCH  13  14
ATOM     14  C   UNL     1       6.575   0.229  -2.106  1.00  0.00     0.099 C 
ATOM     15  N   UNL     1       7.423   0.834  -2.606  1.00  0.00    -0.192 NA
ENDBRANCH  13  14
ENDBRANCH   6   8
ENDBRANCH   2   3
BRANCH   2  16
ATOM     16  C   UNL     1      -0.839   1.051  -0.105  1.00  0.00     0.121 C 
BRANCH  16  17
ATOM     17  O   UNL     1       0.173   1.189  -1.085  1.00  0.00    -0.382 OA
ATOM     18  H   UNL     1       0.946   1.651  -0.633  1.00  0.00     0.211 HD
ENDBRANCH  16  17
BRANCH  16  19
ATOM     19  C   UNL     1      -1.353   2.507   0.205  1.00  0.00     0.187 C 
BRANCH  19  20
ATOM     20  N   UNL     1      -2.477   2.539   1.140  1.00  0.00    -0.250 N 
ATOM     21  C   UNL     1      -3.783   2.428   0.844  1.00  0.00     0.219 A 
ATOM     22  N   UNL     1      -2.365   2.706   2.445  1.00  0.00    -0.160 NA
ATOM     23  N   UNL     1      -4.543   2.492   1.957  1.00  0.00    -0.224 NA
ATOM     24  C   UNL     1      -3.623   2.660   2.930  1.00  0.00     0.246 A 
ENDBRANCH  19  20
ENDBRANCH  16  19
BRANCH  16  25
ATOM     25  C   UNL     1      -1.958   0.211  -0.767  1.00  0.00     0.025 A 
ATOM     26  C   UNL     1      -2.590   0.684  -1.951  1.00  0.00     0.129 A 
ATOM     27  C   UNL     1      -2.333  -1.076  -0.314  1.00  0.00     0.049 A 
ATOM     28  F   UNL     1      -2.192   1.828  -2.558  1.00  0.00    -0.207 F 
ATOM     29  C   UNL     1      -3.642  -0.024  -2.540  1.00  0.00     0.042 A 
ATOM     30  C   UNL     1      -3.382  -1.782  -0.913  1.00  0.00     0.123 A 
ATOM     31  C   UNL     1      -4.061  -1.235  -1.999  1.00  0.00     0.042 A 
ATOM     32  F   UNL     1      -3.739  -2.999  -0.433  1.00  0.00    -0.207 F 
ENDBRANCH  16  25
ENDBRANCH   2  16
TORSDOF 8
