REMARK SMILES CC1(C)CCC(CN2CCN(c3ccc(C(=O)NS(=O)(=O)c4ccc(NCC5CCOCC5)c([N+](=O)[O-])c4)c(Oc4cnc5[nH]ccc5c4)c3)CC2)=C(c2ccc(Cl)cc2)C1
REMARK SMILES IDX 16 1 17 2 18 3 15 5 12 6 13 7 50 8 14 9 39 10 11 11 8 12
REMARK SMILES IDX 9 13 52 14 10 15 51 16 7 17 6 18 1 19 2 20 3 21 4 22 61 23
REMARK SMILES IDX 5 24 53 25 54 26 55 27 60 28 56 29 59 30 57 31 58 32 40 33
REMARK SMILES IDX 41 34 42 35 49 36 43 37 48 38 44 39 47 40 45 41 46 42 19 44
REMARK SMILES IDX 20 45 21 46 22 47 23 48 38 49 24 50 34 51 25 52 35 53 37 54
REMARK SMILES IDX 36 55 26 56 27 58 28 59 29 60 33 61 30 62 32 63 31 64
REMARK H PARENT 18 4 45 43 26 57
REMARK Flexibility Score: inf
ROOT
ATOM      1  C   UNL     1       0.673   1.185  -2.237  1.00  0.00     0.268 C 
ATOM      2  O   UNL     1       0.392   2.361  -2.588  1.00  0.00    -0.268 OA
ATOM      3  N   UNL     1       1.987   0.659  -2.482  1.00  0.00    -0.245 N 
ATOM      4  H   UNL     1       2.145  -0.371  -2.401  1.00  0.00     0.183 HD
ENDROOT
BRANCH   1   5
ATOM      5  C   UNL     1      -0.383   0.349  -1.617  1.00  0.00     0.083 A 
ATOM      6  C   UNL     1      -2.452  -1.216  -0.503  1.00  0.00     0.040 A 
ATOM      7  C   UNL     1      -2.737  -0.241  -1.471  1.00  0.00     0.027 A 
ATOM      8  C   UNL     1      -1.127  -1.389  -0.079  1.00  0.00     0.073 A 
ATOM      9  C   UNL     1      -1.714   0.526  -2.024  1.00  0.00     0.020 A 
ATOM     10  C   UNL     1      -0.092  -0.592  -0.605  1.00  0.00     0.142 A 
BRANCH   6  11
ATOM     11  N   UNL     1      -3.510  -2.003   0.081  1.00  0.00    -0.369 N 
ATOM     12  N   UNL     1      -5.711  -0.888   0.966  1.00  0.00    -0.296 NA
ATOM     13  C   UNL     1      -5.103  -1.802   1.954  1.00  0.00     0.106 C 
ATOM     14  C   UNL     1      -5.888  -1.559  -0.346  1.00  0.00     0.106 C 
ATOM     15  C   UNL     1      -3.646  -2.086   1.543  1.00  0.00     0.132 C 
ATOM     16  C   UNL     1      -4.668  -2.423  -0.716  1.00  0.00     0.132 C 
BRANCH  12  17
ATOM     17  C   UNL     1      -6.973  -0.292   1.448  1.00  0.00     0.116 C 
BRANCH  17  18
ATOM     18  C   UNL     1      -7.174   1.055   0.780  1.00  0.00    -0.052 C 
ATOM     19  C   UNL     1      -5.706   2.833  -1.733  1.00  0.00     0.011 C 
ATOM     20  C   UNL     1      -6.853   3.429  -0.884  1.00  0.00    -0.031 C 
ATOM     21  C   UNL     1      -7.161   4.847  -1.405  1.00  0.00     0.011 C 
ATOM     22  C   UNL     1      -6.464   3.515   0.606  1.00  0.00     0.011 C 
ATOM     23  C   UNL     1      -8.122   2.558  -0.996  1.00  0.00     0.042 C 
ATOM     24  C   UNL     1      -6.195   2.133   1.209  1.00  0.00     0.033 C 
ATOM     25  C   UNL     1      -8.003   1.225  -0.287  1.00  0.00    -0.040 C 
BRANCH  25  26
ATOM     26  C   UNL     1      -8.917   0.159  -0.752  1.00  0.00    -0.022 A 
ATOM     27  C   UNL     1     -10.009  -0.242   0.035  1.00  0.00     0.010 A 
ATOM     28  C   UNL     1      -8.726  -0.427  -2.015  1.00  0.00     0.010 A 
ATOM     29  C   UNL     1     -10.877  -1.239  -0.421  1.00  0.00     0.021 A 
ATOM     30  C   UNL     1      -9.589  -1.431  -2.464  1.00  0.00     0.021 A 
ATOM     31  C   UNL     1     -10.665  -1.839  -1.668  1.00  0.00     0.041 A 
ATOM     32  Cl  UNL     1     -11.747  -3.098  -2.235  1.00  0.00    -0.084 Cl
ENDBRANCH  25  26
ENDBRANCH  17  18
ENDBRANCH  12  17
ENDBRANCH   6  11
BRANCH  10  33
ATOM     33  O   UNL     1       1.229  -0.739  -0.157  1.00  0.00    -0.455 OA
BRANCH  33  34
ATOM     34  C   UNL     1       1.631  -1.028   1.156  1.00  0.00     0.146 A 
ATOM     35  C   UNL     1       0.825  -0.719   2.290  1.00  0.00     0.160 A 
ATOM     36  C   UNL     1       2.903  -1.599   1.353  1.00  0.00     0.060 A 
ATOM     37  N   UNL     1       1.270  -0.991   3.556  1.00  0.00    -0.235 NA
ATOM     38  C   UNL     1       3.303  -1.848   2.660  1.00  0.00     0.022 A 
ATOM     39  C   UNL     1       2.493  -1.553   3.717  1.00  0.00     0.137 A 
ATOM     40  C   UNL     1       4.468  -2.375   3.174  1.00  0.00     0.030 A 
ATOM     41  N   UNL     1       3.074  -1.866   4.884  1.00  0.00    -0.346 N 
ATOM     42  C   UNL     1       4.286  -2.374   4.556  1.00  0.00     0.085 A 
ATOM     43  H   UNL     1       2.677  -1.743   5.842  1.00  0.00     0.167 HD
ENDBRANCH  33  34
ENDBRANCH  10  33
ENDBRANCH   1   5
BRANCH   3  44
ATOM     44  S   UNL     1       3.280   1.614  -3.140  1.00  0.00     0.264 S 
ATOM     45  O   UNL     1       3.447   1.295  -4.599  1.00  0.00    -0.201 OA
ATOM     46  O   UNL     1       2.956   3.075  -2.993  1.00  0.00    -0.201 OA
BRANCH  44  47
ATOM     47  C   UNL     1       4.783   1.272  -2.287  1.00  0.00     0.094 A 
ATOM     48  C   UNL     1       5.115  -0.042  -1.942  1.00  0.00     0.025 A 
ATOM     49  C   UNL     1       5.667   2.311  -1.980  1.00  0.00     0.110 A 
ATOM     50  C   UNL     1       6.332  -0.317  -1.316  1.00  0.00     0.034 A 
ATOM     51  C   UNL     1       6.887   2.053  -1.335  1.00  0.00     0.293 A 
ATOM     52  C   UNL     1       7.241   0.717  -1.024  1.00  0.00     0.113 A 
BRANCH  51  53
ATOM     53  N   UNL     1       7.731   3.158  -0.976  1.00  0.00     0.065 N 
ATOM     54  O   UNL     1       7.753   4.289  -1.760  1.00  0.00    -0.258 OA
ATOM     55  O   UNL     1       8.295   3.186   0.137  1.00  0.00    -0.258 OA
ENDBRANCH  51  53
BRANCH  52  56
ATOM     56  N   UNL     1       8.551   0.412  -0.505  1.00  0.00    -0.379 N 
ATOM     57  H   UNL     1       9.319   1.102  -0.658  1.00  0.00     0.160 HD
BRANCH  56  58
ATOM     58  C   UNL     1       8.843  -0.797   0.272  1.00  0.00     0.116 C 
BRANCH  58  59
ATOM     59  C   UNL     1      10.272  -0.763   0.853  1.00  0.00     0.013 C 
ATOM     60  C   UNL     1      10.454  -1.855   1.919  1.00  0.00     0.034 C 
ATOM     61  C   UNL     1      11.334  -0.943  -0.247  1.00  0.00     0.034 C 
ATOM     62  C   UNL     1      11.914  -1.891   2.387  1.00  0.00     0.160 C 
ATOM     63  C   UNL     1      12.727  -1.051   0.384  1.00  0.00     0.160 C 
ATOM     64  O   UNL     1      12.786  -2.130   1.298  1.00  0.00    -0.381 OA
ENDBRANCH  58  59
ENDBRANCH  56  58
ENDBRANCH  52  56
ENDBRANCH  44  47
ENDBRANCH   3  44
TORSDOF 13
