REMARK SMILES CC(=O)Oc1ccccc1C(=O)Oc1cccc(CO[N+](=O)[O-])c1
REMARK SMILES IDX 13 1 11 2 12 3 10 4 5 5 6 6 7 7 9 8 8 9 4 10 2 11 1 12 3 13
REMARK SMILES IDX 14 14 15 15 24 16 16 17 18 18 17 19 19 20 20 21 21 22 23 23
REMARK SMILES IDX 22 24
REMARK H PARENT
REMARK Flexibility Score: inf
ROOT
ATOM      1  O   UNL     1       0.164  -0.354   0.522  1.00  0.00    -0.423 OA
ENDROOT
BRANCH   1   2
ATOM      2  C   UNL     1       1.141  -0.119   1.498  1.00  0.00     0.347 C 
ATOM      3  O   UNL     1       0.960   0.767   2.378  1.00  0.00    -0.246 OA
BRANCH   2   4
ATOM      4  C   UNL     1       2.348  -0.974   1.550  1.00  0.00     0.103 A 
ATOM      5  C   UNL     1       2.847  -1.628   0.395  1.00  0.00     0.145 A 
ATOM      6  C   UNL     1       3.915  -2.526   0.512  1.00  0.00     0.048 A 
ATOM      7  C   UNL     1       4.531  -2.737   1.747  1.00  0.00     0.004 A 
ATOM      8  C   UNL     1       2.992  -1.185   2.784  1.00  0.00     0.019 A 
ATOM      9  C   UNL     1       4.077  -2.059   2.879  1.00  0.00     0.001 A 
BRANCH   5  10
ATOM     10  O   UNL     1       2.308  -1.407  -0.879  1.00  0.00    -0.426 OA
BRANCH  10  11
ATOM     11  C   UNL     1       2.268  -0.147  -1.486  1.00  0.00     0.308 C 
ATOM     12  C   UNL     1       1.519   0.030  -2.763  1.00  0.00     0.139 C 
ATOM     13  O   UNL     1       2.893   0.829  -0.989  1.00  0.00    -0.252 OA
ENDBRANCH  10  11
ENDBRANCH   5  10
ENDBRANCH   2   4
ENDBRANCH   1   2
BRANCH   1  14
ATOM     14  C   UNL     1      -0.789   0.578   0.087  1.00  0.00     0.131 A 
ATOM     15  C   UNL     1      -0.568   1.966   0.156  1.00  0.00     0.047 A 
ATOM     16  C   UNL     1      -1.976   0.101  -0.482  1.00  0.00     0.053 A 
ATOM     17  C   UNL     1      -1.538   2.856  -0.312  1.00  0.00     0.004 A 
ATOM     18  C   UNL     1      -2.952   0.992  -0.956  1.00  0.00    -0.019 A 
ATOM     19  C   UNL     1      -2.728   2.374  -0.862  1.00  0.00     0.006 A 
BRANCH  18  20
ATOM     20  C   UNL     1      -4.230   0.460  -1.545  1.00  0.00     0.243 C 
BRANCH  20  21
ATOM     21  O   UNL     1      -5.001  -0.199  -0.543  1.00  0.00    -0.309 OA
BRANCH  21  22
ATOM     22  N   UNL     1      -5.639   0.487   0.473  1.00  0.00     0.294 N 
ATOM     23  O   UNL     1      -6.342  -0.215   1.423  1.00  0.00    -0.109 OA
ATOM     24  O   UNL     1      -5.608   1.734   0.529  1.00  0.00    -0.109 OA
ENDBRANCH  21  22
ENDBRANCH  20  21
ENDBRANCH  18  20
ENDBRANCH   1  14
TORSDOF 8
