REMARK SMILES CCC/N=C1\S/C(=C\c2ccc(OC[C@H](O)CO)c(Cl)c2)C(=O)N1c1ccccc1C
REMARK SMILES IDX 13 1 12 2 9 3 10 4 21 5 11 6 19 7 20 8 8 9 4 10 5 11 6 12
REMARK SMILES IDX 24 13 7 14 22 15 23 16 3 17 2 18 1 19 25 20 26 21 30 22
REMARK SMILES IDX 27 23 29 24 31 25 28 26 14 27 15 28 16 29 17 31 18 32
REMARK H PARENT 16 30 18 33
REMARK Flexibility Score: inf
ROOT
ATOM      1  O   UNL     1       5.643   0.668  -0.176  1.00  0.00    -0.489 OA
ENDROOT
BRANCH   1   2
ATOM      2  C   UNL     1       4.442  -0.055  -0.119  1.00  0.00     0.138 A 
ATOM      3  C   UNL     1       1.992  -1.443   0.040  1.00  0.00    -0.023 A 
ATOM      4  C   UNL     1       2.961  -1.822  -0.899  1.00  0.00     0.012 A 
ATOM      5  C   UNL     1       2.272  -0.390   0.926  1.00  0.00     0.032 A 
ATOM      6  C   UNL     1       4.172  -1.130  -0.987  1.00  0.00     0.048 A 
ATOM      7  C   UNL     1       3.484   0.305   0.841  1.00  0.00     0.083 A 
ATOM      8  Cl  UNL     1       3.795   1.627   1.956  1.00  0.00    -0.080 Cl
BRANCH   3   9
ATOM      9  C   UNL     1       0.736  -2.215   0.130  1.00  0.00     0.029 C 
ATOM     10  N   UNL     1      -3.476   0.640   0.533  1.00  0.00    -0.262 NA
ATOM     11  C   UNL     1      -2.571  -0.268   0.322  1.00  0.00     0.176 C 
ATOM     12  S   UNL     1      -0.816   0.110   0.128  1.00  0.00    -0.046 SA
ATOM     13  N   UNL     1      -2.895  -1.657   0.328  1.00  0.00    -0.254 N 
ATOM     14  C   UNL     1      -0.483  -1.661   0.220  1.00  0.00     0.082 C 
ATOM     15  C   UNL     1      -1.714  -2.445   0.294  1.00  0.00     0.271 C 
ATOM     16  O   UNL     1      -1.741  -3.706   0.319  1.00  0.00    -0.268 OA
BRANCH  10  17
ATOM     17  C   UNL     1      -3.205   2.072   0.581  1.00  0.00     0.145 C 
BRANCH  17  18
ATOM     18  C   UNL     1      -4.510   2.829   0.817  1.00  0.00     0.020 C 
ATOM     19  C   UNL     1      -4.274   4.335   0.870  1.00  0.00     0.006 C 
ENDBRANCH  17  18
ENDBRANCH  10  17
BRANCH  13  20
ATOM     20  C   UNL     1      -4.217  -2.187   0.524  1.00  0.00     0.054 A 
ATOM     21  C   UNL     1      -4.495  -2.922   1.687  1.00  0.00     0.027 A 
ATOM     22  C   UNL     1      -5.238  -1.979  -0.432  1.00  0.00    -0.027 A 
ATOM     23  C   UNL     1      -5.779  -3.422   1.918  1.00  0.00     0.002 A 
ATOM     24  C   UNL     1      -6.529  -2.471  -0.177  1.00  0.00     0.005 A 
ATOM     25  C   UNL     1      -4.983  -1.217  -1.704  1.00  0.00     0.046 C 
ATOM     26  C   UNL     1      -6.795  -3.192   0.990  1.00  0.00     0.000 A 
ENDBRANCH  13  20
ENDBRANCH   3   9
ENDBRANCH   1   2
BRANCH   1  27
ATOM     27  C   UNL     1       6.695   0.418  -1.107  1.00  0.00     0.263 C 
BRANCH  27  28
ATOM     28  C   UNL     1       7.847   1.406  -0.879  1.00  0.00     0.177 C 
BRANCH  28  29
ATOM     29  O   UNL     1       8.319   1.296   0.439  1.00  0.00    -0.387 OA
ATOM     30  H   UNL     1       8.853   0.460   0.484  1.00  0.00     0.211 HD
ENDBRANCH  28  29
BRANCH  28  31
ATOM     31  C   UNL     1       7.398   2.850  -1.143  1.00  0.00     0.191 C 
BRANCH  31  32
ATOM     32  O   UNL     1       8.490   3.725  -1.056  1.00  0.00    -0.394 OA
ATOM     33  H   UNL     1       8.638   3.903  -0.090  1.00  0.00     0.210 HD
ENDBRANCH  31  32
ENDBRANCH  28  31
ENDBRANCH  27  28
ENDBRANCH   1  27
TORSDOF 10
