REMARK SMILES CC(C)Oc1ccc(-c2nc(-c3cccc4c3CC[C@@H]4NCCO)no2)cc1C#N
REMARK SMILES IDX 12 1 17 2 18 3 19 4 20 5 16 6 15 7 14 8 13 9 11 10 9 11
REMARK SMILES IDX 10 12 26 13 25 14 8 15 5 16 28 17 6 18 27 19 7 20 4 21 2 22
REMARK SMILES IDX 1 23 3 24 29 25 30 26 21 27 22 29 23 30 24 31
REMARK H PARENT 21 28 24 32
REMARK Flexibility Score: inf
ROOT
ATOM      1  C   UNL     1      -1.890  -0.359  -0.584  1.00  0.00     0.026 A 
ATOM      2  C   UNL     1      -3.141   0.269  -0.397  1.00  0.00    -0.032 A 
ATOM      3  C   UNL     1      -3.404   1.674   0.009  1.00  0.00     0.038 C 
ATOM      4  C   UNL     1      -4.927   1.837  -0.137  1.00  0.00     0.028 C 
ATOM      5  C   UNL     1      -5.522   0.428  -0.332  1.00  0.00     0.084 C 
ATOM      6  C   UNL     1      -4.320  -0.414  -0.604  1.00  0.00    -0.027 A 
ATOM      7  C   UNL     1      -4.319  -1.740  -1.040  1.00  0.00     0.005 A 
ATOM      8  C   UNL     1      -3.095  -2.382  -1.246  1.00  0.00     0.001 A 
ATOM      9  C   UNL     1      -1.889  -1.701  -1.018  1.00  0.00     0.012 A 
ENDROOT
BRANCH   1  10
ATOM     10  C   UNL     1      -0.600   0.332  -0.342  1.00  0.00     0.203 A 
ATOM     11  C   UNL     1       1.445   0.761  -0.228  1.00  0.00     0.258 A 
ATOM     12  N   UNL     1       0.603  -0.214  -0.624  1.00  0.00    -0.187 NA
ATOM     13  O   UNL     1       0.791   1.790   0.250  1.00  0.00    -0.334 OA
ATOM     14  N   UNL     1      -0.485   1.563   0.197  1.00  0.00    -0.057 NA
BRANCH  11  15
ATOM     15  C   UNL     1       2.917   0.679  -0.316  1.00  0.00     0.041 A 
ATOM     16  C   UNL     1       5.726   0.539  -0.468  1.00  0.00     0.137 A 
ATOM     17  C   UNL     1       4.936  -0.493  -1.018  1.00  0.00     0.095 A 
ATOM     18  C   UNL     1       5.102   1.640   0.127  1.00  0.00     0.048 A 
ATOM     19  C   UNL     1       3.538  -0.421  -0.931  1.00  0.00     0.037 A 
ATOM     20  C   UNL     1       3.711   1.710   0.210  1.00  0.00     0.018 A 
BRANCH  16  21
ATOM     21  O   UNL     1       7.127   0.518  -0.513  1.00  0.00    -0.490 OA
BRANCH  21  22
ATOM     22  C   UNL     1       7.927  -0.463   0.151  1.00  0.00     0.167 C 
ATOM     23  C   UNL     1       9.394  -0.224  -0.201  1.00  0.00     0.052 C 
ATOM     24  C   UNL     1       7.719  -0.385   1.664  1.00  0.00     0.052 C 
ENDBRANCH  21  22
ENDBRANCH  16  21
BRANCH  17  25
ATOM     25  C   UNL     1       5.533  -1.594  -1.732  1.00  0.00     0.103 C 
ATOM     26  N   UNL     1       6.009  -2.477  -2.310  1.00  0.00    -0.192 NA
ENDBRANCH  17  25
ENDBRANCH  11  15
ENDBRANCH   1  10
BRANCH   5  27
ATOM     27  N   UNL     1      -6.223   0.012   0.901  1.00  0.00    -0.308 NA
ATOM     28  H   UNL     1      -5.569  -0.491   1.547  1.00  0.00     0.123 HD
BRANCH  27  29
ATOM     29  C   UNL     1      -7.390  -0.841   0.636  1.00  0.00     0.109 C 
BRANCH  29  30
ATOM     30  C   UNL     1      -8.630   0.011   0.344  1.00  0.00     0.171 C 
BRANCH  30  31
ATOM     31  O   UNL     1      -8.895   0.886   1.407  1.00  0.00    -0.395 OA
ATOM     32  H   UNL     1      -9.267   0.336   2.144  1.00  0.00     0.210 HD
ENDBRANCH  30  31
ENDBRANCH  29  30
ENDBRANCH  27  29
ENDBRANCH   5  27
TORSDOF 9
