REMARK SMILES CCCCC1=NC2(CCCC2)C(=O)N1Cc1ccc(-c2ccccc2S(=O)(=O)Nc2noc(C)c2C)c(COCC)c1
REMARK SMILES IDX 16 1 17 2 18 3 19 4 37 5 42 6 15 7 14 8 5 9 6 10 7 11 12 12
REMARK SMILES IDX 8 13 11 14 13 15 9 16 10 17 4 18 3 19 2 20 1 21 38 22 39 23
REMARK SMILES IDX 40 24 41 25 20 26 21 27 25 28 22 29 24 30 23 31 26 32 27 33
REMARK SMILES IDX 28 34 29 35 30 37 31 38 35 39 32 40 33 41 36 42 34 43
REMARK H PARENT 29 36
REMARK Flexibility Score: inf
ROOT
ATOM      1  C   UNL     1      -0.746  -1.305   0.666  1.00  0.00    -0.028 A 
ATOM      2  C   UNL     1       0.175  -1.241   1.721  1.00  0.00     0.006 A 
ATOM      3  C   UNL     1       1.237  -0.336   1.677  1.00  0.00     0.009 A 
ATOM      4  C   UNL     1       1.395   0.527   0.584  1.00  0.00    -0.011 A 
ATOM      5  C   UNL     1       0.476   0.469  -0.490  1.00  0.00    -0.014 A 
ATOM      6  C   UNL     1      -0.554  -0.483  -0.458  1.00  0.00     0.012 A 
ENDROOT
BRANCH   1   7
ATOM      7  C   UNL     1      -1.926  -2.245   0.753  1.00  0.00     0.162 C 
BRANCH   7   8
ATOM      8  N   UNL     1      -3.138  -1.643   0.190  1.00  0.00    -0.294 N 
ATOM      9  C   UNL     1      -3.746  -0.407   0.576  1.00  0.00     0.107 C 
ATOM     10  N   UNL     1      -4.506   0.122  -0.334  1.00  0.00    -0.256 NA
ATOM     11  C   UNL     1      -4.544  -0.736  -1.518  1.00  0.00     0.141 C 
ATOM     12  C   UNL     1      -3.627  -1.849  -1.124  1.00  0.00     0.256 C 
ATOM     13  C   UNL     1      -4.087   0.002  -2.771  1.00  0.00     0.041 C 
ATOM     14  C   UNL     1      -5.957  -1.220  -1.820  1.00  0.00     0.041 C 
ATOM     15  O   UNL     1      -3.293  -2.817  -1.858  1.00  0.00    -0.272 OA
ATOM     16  C   UNL     1      -4.820  -0.668  -3.929  1.00  0.00     0.003 C 
ATOM     17  C   UNL     1      -5.991  -1.455  -3.326  1.00  0.00     0.003 C 
BRANCH   9  18
ATOM     18  C   UNL     1      -3.537   0.247   1.911  1.00  0.00     0.075 C 
BRANCH  18  19
ATOM     19  C   UNL     1      -4.233  -0.518   3.049  1.00  0.00     0.008 C 
BRANCH  19  20
ATOM     20  C   UNL     1      -5.732  -0.193   3.197  1.00  0.00    -0.003 C 
ATOM     21  C   UNL     1      -6.618  -0.976   2.231  1.00  0.00     0.004 C 
ENDBRANCH  19  20
ENDBRANCH  18  19
ENDBRANCH   9  18
ENDBRANCH   7   8
ENDBRANCH   1   7
BRANCH   5  22
ATOM     22  C   UNL     1       0.502   1.453  -1.640  1.00  0.00     0.196 C 
BRANCH  22  23
ATOM     23  O   UNL     1      -0.742   2.121  -1.751  1.00  0.00    -0.377 OA
BRANCH  23  24
ATOM     24  C   UNL     1      -0.838   3.150  -0.786  1.00  0.00     0.157 C 
ATOM     25  C   UNL     1      -2.252   3.709  -0.797  1.00  0.00     0.035 C 
ENDBRANCH  23  24
ENDBRANCH  22  23
ENDBRANCH   5  22
BRANCH   4  26
ATOM     26  C   UNL     1       2.514   1.490   0.602  1.00  0.00     0.003 A 
ATOM     27  C   UNL     1       2.391   2.636   1.405  1.00  0.00     0.010 A 
ATOM     28  C   UNL     1       3.688   1.298  -0.168  1.00  0.00     0.095 A 
ATOM     29  C   UNL     1       3.407   3.591   1.434  1.00  0.00     0.001 A 
ATOM     30  C   UNL     1       4.694   2.276  -0.137  1.00  0.00     0.023 A 
ATOM     31  C   UNL     1       4.555   3.413   0.662  1.00  0.00     0.001 A 
BRANCH  28  32
ATOM     32  S   UNL     1       3.934  -0.123  -1.193  1.00  0.00     0.263 S 
ATOM     33  O   UNL     1       3.436   0.176  -2.577  1.00  0.00    -0.201 OA
ATOM     34  O   UNL     1       3.208  -1.325  -0.657  1.00  0.00    -0.201 OA
BRANCH  32  35
ATOM     35  N   UNL     1       5.623  -0.498  -1.266  1.00  0.00    -0.260 N 
ATOM     36  H   UNL     1       6.119  -0.391  -2.176  1.00  0.00     0.182 HD
BRANCH  35  37
ATOM     37  C   UNL     1       6.325  -0.975  -0.115  1.00  0.00     0.186 A 
ATOM     38  N   UNL     1       5.758  -1.148   1.098  1.00  0.00    -0.061 NA
ATOM     39  C   UNL     1       7.644  -1.380  -0.076  1.00  0.00     0.037 A 
ATOM     40  O   UNL     1       6.675  -1.659   1.870  1.00  0.00    -0.359 OA
ATOM     41  C   UNL     1       7.807  -1.826   1.222  1.00  0.00     0.138 A 
ATOM     42  C   UNL     1       8.619  -1.456  -1.209  1.00  0.00     0.052 C 
ATOM     43  C   UNL     1       9.040  -2.421   1.820  1.00  0.00     0.091 C 
ENDBRANCH  35  37
ENDBRANCH  32  35
ENDBRANCH  28  32
ENDBRANCH   4  26
TORSDOF 12
