REMARK SMILES NC(CO)C(=O)NNCc1ccc(O)c(O)c1O
REMARK SMILES IDX 5 1 6 2 7 3 2 5 1 6 3 9 4 10 8 12 9 14 10 15 17 16 11 17
REMARK SMILES IDX 15 18 12 19 13 20 18 21 16 23 14 25
REMARK H PARENT 7 4 1 7 1 8 4 11 8 13 18 22 16 24 14 26
REMARK Flexibility Score: inf
ROOT
ATOM      1  C   UNL     1       2.761   0.334  -1.203  1.00  0.00     0.253 C 
ATOM      2  O   UNL     1       2.520   1.294  -1.985  1.00  0.00    -0.272 OA
ATOM      3  N   UNL     1       1.683  -0.298  -0.502  1.00  0.00    -0.290 N 
ATOM      4  H   UNL     1       1.898  -1.083   0.155  1.00  0.00     0.184 HD
ENDROOT
BRANCH   1   5
ATOM      5  C   UNL     1       4.189  -0.130  -1.024  1.00  0.00     0.168 C 
BRANCH   5   6
ATOM      6  N   UNL     1       4.353  -1.510  -1.486  1.00  0.00    -0.318 NA
ATOM      7  H   UNL     1       3.719  -2.143  -0.947  1.00  0.00     0.119 HD
ATOM      8  H   UNL     1       4.069  -1.564  -2.492  1.00  0.00     0.119 HD
ENDBRANCH   5   6
BRANCH   5   9
ATOM      9  C   UNL     1       4.652  -0.002   0.435  1.00  0.00     0.184 C 
BRANCH   9  10
ATOM     10  O   UNL     1       4.629   1.340   0.846  1.00  0.00    -0.394 OA
ATOM     11  H   UNL     1       3.703   1.530   1.152  1.00  0.00     0.210 HD
ENDBRANCH   9  10
ENDBRANCH   5   9
ENDBRANCH   1   5
BRANCH   3  12
ATOM     12  N   UNL     1       0.362   0.162  -0.677  1.00  0.00    -0.230 NA
ATOM     13  H   UNL     1       0.065  -0.118  -1.641  1.00  0.00     0.148 HD
BRANCH  12  14
ATOM     14  C   UNL     1      -0.525  -0.507   0.284  1.00  0.00     0.144 C 
BRANCH  14  15
ATOM     15  C   UNL     1      -1.942   0.035   0.236  1.00  0.00     0.014 A 
ATOM     16  C   UNL     1      -3.003  -0.669   0.863  1.00  0.00     0.166 A 
ATOM     17  C   UNL     1      -2.222   1.273  -0.378  1.00  0.00     0.013 A 
ATOM     18  C   UNL     1      -4.316  -0.162   0.801  1.00  0.00     0.200 A 
ATOM     19  C   UNL     1      -3.524   1.769  -0.424  1.00  0.00     0.051 A 
ATOM     20  C   UNL     1      -4.573   1.051   0.155  1.00  0.00     0.161 A 
BRANCH  16  21
ATOM     21  O   UNL     1      -2.783  -1.860   1.561  1.00  0.00    -0.504 OA
ATOM     22  H   UNL     1      -1.866  -2.253   1.726  1.00  0.00     0.293 HD
ENDBRANCH  16  21
BRANCH  18  23
ATOM     23  O   UNL     1      -5.378  -0.853   1.387  1.00  0.00    -0.502 OA
ATOM     24  H   UNL     1      -5.252  -1.735   1.868  1.00  0.00     0.293 HD
ENDBRANCH  18  23
BRANCH  20  25
ATOM     25  O   UNL     1      -5.877   1.542   0.101  1.00  0.00    -0.504 OA
ATOM     26  H   UNL     1      -6.095   2.419  -0.358  1.00  0.00     0.293 HD
ENDBRANCH  20  25
ENDBRANCH  14  15
ENDBRANCH  12  14
ENDBRANCH   3  12
TORSDOF 10
