REMARK SMILES Cc1cnc(Nc2ccc(OCCN3CCCC3)cc2)nc1Nc1cccc(S(=O)(=O)NC(C)(C)C)c1
REMARK SMILES IDX 1 1 2 2 3 3 4 4 5 5 21 6 22 7 23 8 24 10 25 11 37 12 26 13
REMARK SMILES IDX 28 14 27 15 29 16 30 17 31 18 32 19 33 21 34 22 35 23 36 24
REMARK SMILES IDX 6 25 7 27 8 28 20 29 9 30 19 31 10 32 11 33 12 34 13 35
REMARK SMILES IDX 14 36 15 37 18 38 16 39 17 40
REMARK H PARENT 23 9 32 20 6 26
REMARK Flexibility Score: inf
ROOT
ATOM      1  C   UNL     1       3.960  -2.469  -1.590  1.00  0.00     0.050 C 
ATOM      2  C   UNL     1       2.618  -1.836  -1.839  1.00  0.00     0.010 A 
ATOM      3  C   UNL     1       2.256  -1.476  -3.143  1.00  0.00     0.122 A 
ATOM      4  N   UNL     1       1.040  -0.927  -3.391  1.00  0.00    -0.221 NA
ATOM      5  C   UNL     1       0.146  -0.711  -2.390  1.00  0.00     0.229 A 
ATOM      6  N   UNL     1       0.483  -1.040  -1.115  1.00  0.00    -0.195 NA
ATOM      7  C   UNL     1       1.697  -1.565  -0.806  1.00  0.00     0.138 A 
ENDROOT
BRANCH   7   8
ATOM      8  N   UNL     1       1.991  -1.854   0.567  1.00  0.00    -0.340 N 
ATOM      9  H   UNL     1       1.301  -2.448   1.081  1.00  0.00     0.168 HD
BRANCH   8  10
ATOM     10  C   UNL     1       3.022  -1.192   1.324  1.00  0.00     0.041 A 
ATOM     11  C   UNL     1       3.281  -1.612   2.637  1.00  0.00     0.026 A 
ATOM     12  C   UNL     1       3.765  -0.120   0.789  1.00  0.00     0.047 A 
ATOM     13  C   UNL     1       4.268  -0.982   3.398  1.00  0.00     0.004 A 
ATOM     14  C   UNL     1       4.774   0.495   1.547  1.00  0.00     0.084 A 
ATOM     15  C   UNL     1       5.014   0.066   2.857  1.00  0.00     0.022 A 
BRANCH  14  16
ATOM     16  S   UNL     1       5.728   1.813   0.869  1.00  0.00     0.241 S 
ATOM     17  O   UNL     1       5.406   3.055   1.651  1.00  0.00    -0.207 OA
ATOM     18  O   UNL     1       5.341   2.059  -0.562  1.00  0.00    -0.207 OA
BRANCH  16  19
ATOM     19  N   UNL     1       7.447   1.510   1.002  1.00  0.00    -0.206 NA
ATOM     20  H   UNL     1       7.640   1.308   2.012  1.00  0.00     0.141 HD
BRANCH  19  21
ATOM     21  C   UNL     1       8.016   0.426   0.161  1.00  0.00     0.025 C 
ATOM     22  C   UNL     1       7.423  -0.955   0.507  1.00  0.00     0.028 C 
ATOM     23  C   UNL     1       7.831   0.717  -1.345  1.00  0.00     0.028 C 
ATOM     24  C   UNL     1       9.532   0.381   0.445  1.00  0.00     0.028 C 
ENDBRANCH  19  21
ENDBRANCH  16  19
ENDBRANCH  14  16
ENDBRANCH   8  10
ENDBRANCH   7   8
BRANCH   5  25
ATOM     25  N   UNL     1      -1.134  -0.134  -2.704  1.00  0.00    -0.324 N 
ATOM     26  H   UNL     1      -1.328   0.005  -3.725  1.00  0.00     0.170 HD
BRANCH  25  27
ATOM     27  C   UNL     1      -2.202   0.206  -1.789  1.00  0.00     0.041 A 
ATOM     28  C   UNL     1      -3.492   0.414  -2.310  1.00  0.00     0.030 A 
ATOM     29  C   UNL     1      -1.998   0.399  -0.407  1.00  0.00     0.030 A 
ATOM     30  C   UNL     1      -4.551   0.775  -1.474  1.00  0.00     0.048 A 
ATOM     31  C   UNL     1      -3.068   0.721   0.430  1.00  0.00     0.048 A 
ATOM     32  C   UNL     1      -4.353   0.897  -0.089  1.00  0.00     0.119 A 
BRANCH  32  33
ATOM     33  O   UNL     1      -5.389   1.198   0.809  1.00  0.00    -0.492 OA
BRANCH  33  34
ATOM     34  C   UNL     1      -6.779   1.291   0.488  1.00  0.00     0.245 C 
BRANCH  34  35
ATOM     35  C   UNL     1      -7.359  -0.103   0.154  1.00  0.00     0.126 C 
BRANCH  35  36
ATOM     36  N   UNL     1      -8.826  -0.215   0.324  1.00  0.00    -0.300 NA
ATOM     37  C   UNL     1      -9.603   0.803  -0.399  1.00  0.00     0.084 C 
ATOM     38  C   UNL     1      -9.259  -0.205   1.734  1.00  0.00     0.084 C 
ATOM     39  C   UNL     1     -10.271   1.688   0.637  1.00  0.00     0.017 C 
ATOM     40  C   UNL     1     -10.379   0.820   1.870  1.00  0.00     0.017 C 
ENDBRANCH  35  36
ENDBRANCH  34  35
ENDBRANCH  33  34
ENDBRANCH  32  33
ENDBRANCH  25  27
ENDBRANCH   5  25
TORSDOF 11
