REMARK SMILES Fc1ccc(CN2CCC(Nc3ccc(C(F)(F)F)nn3)CC2)cc1F
REMARK SMILES IDX 7 1 8 2 9 3 10 4 22 5 23 6 6 7 5 8 1 9 2 10 25 11 3 12 26 13
REMARK SMILES IDX 24 14 4 15 11 16 12 18 13 19 21 20 14 21 20 22 15 23 16 24
REMARK SMILES IDX 17 25 18 26 19 27
REMARK H PARENT 11 17
REMARK Flexibility Score: inf
ROOT
ATOM      1  N   UNL     1       1.723   0.113  -1.276  1.00  0.00    -0.299 NA
ATOM      2  C   UNL     1       0.498   0.649  -1.930  1.00  0.00     0.087 C 
ATOM      3  C   UNL     1      -0.775  -0.182  -1.668  1.00  0.00     0.040 C 
ATOM      4  C   UNL     1      -0.779  -0.732  -0.236  1.00  0.00     0.083 C 
ATOM      5  C   UNL     1       0.444  -1.655  -0.013  1.00  0.00     0.040 C 
ATOM      6  C   UNL     1       1.626  -1.327  -0.951  1.00  0.00     0.087 C 
ENDROOT
BRANCH   1   7
ATOM      7  C   UNL     1       2.175   0.938  -0.132  1.00  0.00     0.120 C 
BRANCH   7   8
ATOM      8  C   UNL     1       3.613   0.643   0.208  1.00  0.00    -0.031 A 
ATOM      9  F   UNL     1       7.587  -0.215   1.104  1.00  0.00    -0.204 F 
ATOM     10  C   UNL     1       6.293   0.065   0.810  1.00  0.00     0.158 A 
ATOM     11  C   UNL     1       5.969   0.709  -0.389  1.00  0.00     0.159 A 
ATOM     12  C   UNL     1       5.282  -0.292   1.707  1.00  0.00     0.043 A 
ATOM     13  F   UNL     1       6.948   1.054  -1.261  1.00  0.00    -0.204 F 
ATOM     14  C   UNL     1       4.634   0.996  -0.691  1.00  0.00     0.047 A 
ATOM     15  C   UNL     1       3.946  -0.007   1.408  1.00  0.00     0.008 A 
ENDBRANCH   7   8
ENDBRANCH   1   7
BRANCH   4  16
ATOM     16  N   UNL     1      -2.036  -1.445   0.032  1.00  0.00    -0.366 N 
ATOM     17  H   UNL     1      -2.033  -2.490   0.048  1.00  0.00     0.162 HD
BRANCH  16  18
ATOM     18  C   UNL     1      -3.304  -0.806   0.275  1.00  0.00     0.148 A 
ATOM     19  C   UNL     1      -3.445   0.588   0.361  1.00  0.00     0.051 A 
ATOM     20  N   UNL     1      -4.409  -1.584   0.437  1.00  0.00    -0.133 NA
ATOM     21  C   UNL     1      -4.704   1.134   0.602  1.00  0.00     0.039 A 
ATOM     22  N   UNL     1      -5.614  -1.059   0.668  1.00  0.00    -0.144 NA
ATOM     23  C   UNL     1      -5.802   0.285   0.756  1.00  0.00     0.167 A 
BRANCH  23  24
ATOM     24  C   UNL     1      -7.170   0.843   1.018  1.00  0.00     0.435 C 
ATOM     25  F   UNL     1      -7.540   1.675  -0.023  1.00  0.00    -0.164 F 
ATOM     26  F   UNL     1      -7.159   1.566   2.196  1.00  0.00    -0.164 F 
ATOM     27  F   UNL     1      -8.099  -0.177   1.127  1.00  0.00    -0.164 F 
ENDBRANCH  23  24
ENDBRANCH  16  18
ENDBRANCH   4  16
TORSDOF 5
