REMARK SMILES CNCc1ccc(-c2[nH]c3cc(F)cc4c3c2CCNC4=O)cc1
REMARK SMILES IDX 8 1 17 2 15 3 16 4 10 5 9 6 11 7 12 8 13 9 14 10 7 12 4 13
REMARK SMILES IDX 5 14 24 15 6 16 23 17 3 18 2 19 1 20 18 22 21 24 20 25 22 26
REMARK SMILES IDX 19 28
REMARK H PARENT 9 11 2 21 20 27
REMARK Flexibility Score: 90.00
ROOT
ATOM      1  C   UNL     1      -0.654   0.650   0.495  1.00  0.00     0.050 A 
ATOM      2  C   UNL     1      -1.664  -0.181  -0.006  1.00  0.00    -0.012 A 
ATOM      3  C   UNL     1      -4.206   0.129   0.025  1.00  0.00     0.052 A 
ATOM      4  C   UNL     1      -2.859   0.476   0.259  1.00  0.00     0.016 A 
ATOM      5  C   UNL     1      -2.517   1.663   0.868  1.00  0.00     0.050 A 
ATOM      6  N   UNL     1      -1.188   1.779   1.011  1.00  0.00    -0.354 N 
ATOM      7  C   UNL     1      -3.473   2.590   1.271  1.00  0.00     0.066 A 
ATOM      8  C   UNL     1      -4.822   2.285   1.046  1.00  0.00     0.126 A 
ATOM      9  F   UNL     1      -5.783   3.162   1.426  1.00  0.00    -0.207 F 
ATOM     10  C   UNL     1      -5.186   1.067   0.435  1.00  0.00     0.053 A 
ATOM     11  H   UNL     1      -0.675   2.574   1.455  1.00  0.00     0.167 HD
ENDROOT
BRANCH   1  12
ATOM     12  C   UNL     1       0.802   0.385   0.482  1.00  0.00    -0.002 A 
ATOM     13  C   UNL     1       3.579  -0.085   0.495  1.00  0.00    -0.034 A 
ATOM     14  C   UNL     1       3.077   1.186   0.174  1.00  0.00     0.006 A 
ATOM     15  C   UNL     1       2.685  -1.118   0.812  1.00  0.00     0.006 A 
ATOM     16  C   UNL     1       1.699   1.420   0.175  1.00  0.00     0.010 A 
ATOM     17  C   UNL     1       1.307  -0.883   0.813  1.00  0.00     0.010 A 
BRANCH  13  18
ATOM     18  C   UNL     1       5.061  -0.350   0.472  1.00  0.00     0.116 C 
BRANCH  18  19
ATOM     19  N   UNL     1       5.419  -1.194  -0.675  1.00  0.00    -0.316 NA
ATOM     20  C   UNL     1       5.458  -0.415  -1.916  1.00  0.00     0.101 C 
ATOM     21  H   UNL     1       6.386  -1.561  -0.510  1.00  0.00     0.122 HD
ENDBRANCH  18  19
ENDBRANCH  13  18
ENDBRANCH   1  12
BRANCH   2  22
ATOM     22  C   UNL     1      -1.480  -1.468  -0.754  1.00  0.00     0.059 CG0
ATOM     23  G   UNL     1      -2.502  -1.604  -1.877  1.00  0.00     0.000 G0
ENDBRANCH   2  22
BRANCH   3  24
ATOM     24  C   UNL     1      -4.643  -1.174  -0.548  1.00  0.00     0.252 C 
ATOM     25  N   UNL     1      -3.792  -2.014  -1.339  1.00  0.00    -0.352 N 
ATOM     26  O   UNL     1      -5.822  -1.564  -0.331  1.00  0.00    -0.269 OA
ATOM     27  H   UNL     1      -4.161  -2.948  -1.630  1.00  0.00     0.163 HD
BRANCH  25  28
ATOM     28  C   UNL     1      -2.502  -1.604  -1.877  1.00  0.00     0.121 CG0
ATOM     29  G   UNL     1      -1.480  -1.468  -0.754  1.00  0.00     0.000 G0
ENDBRANCH  25  28
ENDBRANCH   3  24
TORSDOF 3
