REMARK SMILES C[C@]12CC[C@@H]3c4ccc(O)cc4CC[C@H]3[C@@H]1[C@@H](O)[C@@H](O)[C@@H]2O
REMARK SMILES IDX 16 1 17 2 19 3 21 4 2 5 1 6 3 7 4 8 5 9 6 10 7 11 8 12 9 13
REMARK SMILES IDX 11 14 12 15 13 16 14 17 15 18 18 19 20 21 22 23 10 25
REMARK H PARENT 18 20 20 22 22 24 10 26
REMARK Flexibility Score: inf
ROOT
ATOM      1  C   UNL     1      -1.316   0.636  -0.453  1.00  0.00     0.033 C 
ATOM      2  C   UNL     1      -2.242   1.804  -0.081  1.00  0.00     0.149 C 
ATOM      3  C   UNL     1      -3.670   1.254  -0.357  1.00  0.00     0.172 C 
ATOM      4  C   UNL     1      -3.504  -0.259  -0.672  1.00  0.00     0.152 C 
ATOM      5  C   UNL     1      -2.124  -0.621  -0.084  1.00  0.00     0.002 C 
ATOM      6  C   UNL     1      -2.260  -0.868   1.455  1.00  0.00     0.014 C 
ATOM      7  C   UNL     1      -1.443  -1.837  -0.749  1.00  0.00     0.010 C 
ATOM      8  C   UNL     1       0.043  -1.959  -0.325  1.00  0.00     0.009 C 
ATOM      9  C   UNL     1       0.852  -0.639  -0.518  1.00  0.00     0.023 C 
ATOM     10  C   UNL     1       2.299  -0.715  -0.024  1.00  0.00    -0.041 A 
ATOM     11  C   UNL     1       3.039  -1.914  -0.120  1.00  0.00     0.008 A 
ATOM     12  C   UNL     1       4.383  -1.960   0.253  1.00  0.00     0.046 A 
ATOM     13  C   UNL     1       5.029  -0.811   0.703  1.00  0.00     0.115 A 
ATOM     14  C   UNL     1       4.327   0.396   0.770  1.00  0.00     0.050 A 
ATOM     15  C   UNL     1       2.977   0.464   0.388  1.00  0.00    -0.041 A 
ATOM     16  C   UNL     1       2.276   1.798   0.522  1.00  0.00     0.036 C 
ATOM     17  C   UNL     1       0.920   1.852  -0.186  1.00  0.00     0.009 C 
ATOM     18  C   UNL     1       0.118   0.581   0.118  1.00  0.00     0.003 C 
ENDROOT
BRANCH   2  19
ATOM     19  O   UNL     1      -1.965   2.990  -0.791  1.00  0.00    -0.390 OA
ATOM     20  H   UNL     1      -1.852   2.769  -1.751  1.00  0.00     0.211 HD
ENDBRANCH   2  19
BRANCH   3  21
ATOM     21  O   UNL     1      -4.332   1.936  -1.396  1.00  0.00    -0.388 OA
ATOM     22  H   UNL     1      -3.849   1.752  -2.243  1.00  0.00     0.211 HD
ENDBRANCH   3  21
BRANCH   4  23
ATOM     23  O   UNL     1      -4.541  -1.020  -0.106  1.00  0.00    -0.390 OA
ATOM     24  H   UNL     1      -5.359  -0.812  -0.629  1.00  0.00     0.211 HD
ENDBRANCH   4  23
BRANCH  13  25
ATOM     25  O   UNL     1       6.369  -0.876   1.077  1.00  0.00    -0.508 OA
ATOM     26  H   UNL     1       6.868  -0.058   1.407  1.00  0.00     0.293 HD
ENDBRANCH  13  25
TORSDOF 4
