REMARK SMILES COc1cc2c(cc1OC)[C@@H]1Cc3ccc(OC)c(OC)c3CN1CC2
REMARK SMILES IDX 16 1 15 2 14 3 13 4 12 5 11 6 24 7 25 8 26 9 5 10 4 11 3 12
REMARK SMILES IDX 8 13 7 14 6 15 23 16 22 17 19 18 17 19 18 20 20 21 21 22
REMARK SMILES IDX 9 23 10 24 2 25 1 26
REMARK H PARENT
REMARK Flexibility Score: inf
ROOT
ATOM      1  C   UNL     1       3.769  -1.906   2.022  1.00  0.00     0.161 A 
ATOM      2  C   UNL     1       3.097  -3.011   1.490  1.00  0.00     0.051 A 
ATOM      3  C   UNL     1       1.822  -2.874   0.949  1.00  0.00     0.008 A 
ATOM      4  C   UNL     1       1.155  -1.639   1.004  1.00  0.00    -0.038 A 
ATOM      5  C   UNL     1      -0.150  -1.461   0.275  1.00  0.00     0.060 C 
ATOM      6  C   UNL     1      -0.284   0.006  -0.168  1.00  0.00     0.092 C 
ATOM      7  N   UNL     1      -0.288   0.814   1.075  1.00  0.00    -0.291 NA
ATOM      8  C   UNL     1      -0.713   2.199   0.834  1.00  0.00     0.090 C 
ATOM      9  C   UNL     1      -2.176   2.206   0.417  1.00  0.00     0.051 C 
ATOM     10  C   UNL     1      -2.376   1.338  -0.795  1.00  0.00    -0.038 A 
ATOM     11  C   UNL     1      -3.378   1.665  -1.723  1.00  0.00     0.054 A 
ATOM     12  C   UNL     1      -3.480   0.967  -2.936  1.00  0.00     0.161 A 
ATOM     13  C   UNL     1      -2.675  -0.157  -3.151  1.00  0.00     0.161 A 
ATOM     14  C   UNL     1      -1.700  -0.510  -2.215  1.00  0.00     0.056 A 
ATOM     15  C   UNL     1      -1.526   0.233  -1.031  1.00  0.00    -0.023 A 
ATOM     16  C   UNL     1       1.031   0.793   1.751  1.00  0.00     0.125 C 
ATOM     17  C   UNL     1       1.758  -0.544   1.663  1.00  0.00     0.015 A 
ATOM     18  C   UNL     1       3.092  -0.669   2.132  1.00  0.00     0.165 A 
ENDROOT
BRANCH   1  19
ATOM     19  O   UNL     1       5.114  -2.080   2.407  1.00  0.00    -0.493 OA
ATOM     20  C   UNL     1       6.125  -1.082   2.299  1.00  0.00     0.278 C 
ENDBRANCH   1  19
BRANCH  18  21
ATOM     21  O   UNL     1       3.746   0.442   2.670  1.00  0.00    -0.493 OA
ATOM     22  C   UNL     1       3.603   0.825   4.031  1.00  0.00     0.278 C 
ENDBRANCH  18  21
BRANCH  13  23
ATOM     23  O   UNL     1      -2.848  -0.913  -4.320  1.00  0.00    -0.493 OA
ATOM     24  C   UNL     1      -3.114  -2.317  -4.283  1.00  0.00     0.278 C 
ENDBRANCH  13  23
BRANCH  12  25
ATOM     25  O   UNL     1      -4.337   1.374  -3.967  1.00  0.00    -0.493 OA
ATOM     26  C   UNL     1      -5.197   2.517  -3.899  1.00  0.00     0.278 C 
ENDBRANCH  12  25
TORSDOF 4
