REMARK SMILES CCCOC(C(=O)OC1CCN(C)CC1)(c1ccccc1)c1ccccc1
REMARK SMILES IDX 5 1 4 2 3 3 2 4 1 5 6 6 7 7 8 8 9 9 10 10 15 11 11 12 14 13
REMARK SMILES IDX 12 14 13 15 16 16 17 17 21 18 18 19 20 20 19 21 22 22 23 23
REMARK SMILES IDX 27 24 24 25 26 26 25 27
REMARK H PARENT
REMARK Flexibility Score: inf
ROOT
ATOM      1  C   UNL     1      -1.469   0.313   0.118  1.00  0.00     0.215 C 
ENDROOT
BRANCH   1   2
ATOM      2  O   UNL     1      -2.454   1.265   0.527  1.00  0.00    -0.354 OA
BRANCH   2   3
ATOM      3  C   UNL     1      -2.724   1.244   1.920  1.00  0.00     0.162 C 
BRANCH   3   4
ATOM      4  C   UNL     1      -3.341   2.582   2.323  1.00  0.00     0.025 C 
ATOM      5  C   UNL     1      -3.681   2.612   3.810  1.00  0.00     0.006 C 
ENDBRANCH   3   4
ENDBRANCH   2   3
ENDBRANCH   1   2
BRANCH   1   6
ATOM      6  C   UNL     1      -0.086   0.752   0.571  1.00  0.00     0.348 C 
ATOM      7  O   UNL     1       0.110   1.941   0.948  1.00  0.00    -0.248 OA
BRANCH   6   8
ATOM      8  O   UNL     1       0.990  -0.137   0.453  1.00  0.00    -0.460 OA
BRANCH   8   9
ATOM      9  C   UNL     1       2.357   0.250   0.587  1.00  0.00     0.179 C 
ATOM     10  C   UNL     1       2.811   1.034  -0.666  1.00  0.00     0.061 C 
ATOM     11  C   UNL     1       3.206  -1.017   0.816  1.00  0.00     0.061 C 
ATOM     12  C   UNL     1       3.361   0.087  -1.741  1.00  0.00     0.088 C 
ATOM     13  C   UNL     1       4.602  -0.871   0.201  1.00  0.00     0.088 C 
ATOM     14  N   UNL     1       4.532  -0.699  -1.271  1.00  0.00    -0.306 NA
ATOM     15  C   UNL     1       5.794  -0.137  -1.777  1.00  0.00     0.105 C 
ENDBRANCH   8   9
ENDBRANCH   6   8
ENDBRANCH   1   6
BRANCH   1  16
ATOM     16  C   UNL     1      -1.387   0.321  -1.414  1.00  0.00    -0.000 A 
ATOM     17  C   UNL     1      -1.914   1.391  -2.171  1.00  0.00     0.008 A 
ATOM     18  C   UNL     1      -0.687  -0.699  -2.098  1.00  0.00     0.008 A 
ATOM     19  C   UNL     1      -1.780   1.414  -3.562  1.00  0.00     0.000 A 
ATOM     20  C   UNL     1      -0.554  -0.667  -3.488  1.00  0.00     0.000 A 
ATOM     21  C   UNL     1      -1.104   0.386  -4.220  1.00  0.00     0.000 A 
ENDBRANCH   1  16
BRANCH   1  22
ATOM     22  C   UNL     1      -1.860  -1.100   0.605  1.00  0.00    -0.000 A 
ATOM     23  C   UNL     1      -2.952  -1.763   0.004  1.00  0.00     0.008 A 
ATOM     24  C   UNL     1      -1.245  -1.708   1.723  1.00  0.00     0.008 A 
ATOM     25  C   UNL     1      -3.364  -3.019   0.456  1.00  0.00     0.000 A 
ATOM     26  C   UNL     1      -1.662  -2.965   2.170  1.00  0.00     0.000 A 
ATOM     27  C   UNL     1      -2.715  -3.623   1.533  1.00  0.00     0.000 A 
ENDBRANCH   1  22
TORSDOF 8
