REMARK SMILES O=c1c(-c2ccccc2)coc2ccccc12
REMARK SMILES IDX 1 1 2 2 3 3 10 4 11 5 12 6 13 7 14 8 15 9 16 10 17 11 4 12
REMARK SMILES IDX 5 13 9 14 6 15 8 16 7 17
REMARK H PARENT
REMARK Flexibility Score: inf
ROOT
ATOM      1  O   UNL     1       0.313   1.522  -1.295  1.00  0.00    -0.288 OA
ATOM      2  C   UNL     1       0.600   0.562  -0.527  1.00  0.00     0.200 A 
ATOM      3  C   UNL     1      -0.416  -0.274  -0.025  1.00  0.00     0.065 A 
ATOM      4  C   UNL     1      -0.043  -1.352   0.794  1.00  0.00     0.208 A 
ATOM      5  O   UNL     1       1.232  -1.572   1.096  1.00  0.00    -0.463 OA
ATOM      6  C   UNL     1       2.218  -0.801   0.651  1.00  0.00     0.137 A 
ATOM      7  C   UNL     1       3.539  -1.089   1.011  1.00  0.00     0.048 A 
ATOM      8  C   UNL     1       4.584  -0.286   0.546  1.00  0.00     0.004 A 
ATOM      9  C   UNL     1       4.315   0.808  -0.281  1.00  0.00     0.001 A 
ATOM     10  C   UNL     1       2.999   1.106  -0.648  1.00  0.00     0.016 A 
ATOM     11  C   UNL     1       1.939   0.305  -0.184  1.00  0.00     0.065 A 
ENDROOT
BRANCH   3  12
ATOM     12  C   UNL     1      -1.848  -0.047  -0.341  1.00  0.00    -0.011 A 
ATOM     13  C   UNL     1      -2.421   1.230  -0.198  1.00  0.00     0.009 A 
ATOM     14  C   UNL     1      -2.659  -1.114  -0.769  1.00  0.00     0.009 A 
ATOM     15  C   UNL     1      -3.773   1.436  -0.489  1.00  0.00     0.001 A 
ATOM     16  C   UNL     1      -4.010  -0.904  -1.060  1.00  0.00     0.001 A 
ATOM     17  C   UNL     1      -4.566   0.370  -0.921  1.00  0.00     0.000 A 
ENDBRANCH   3  12
TORSDOF 1
