REMARK SMILES NC1(C(=O)N[C@@H](CCO)c2ccc(Cl)cc2)CCN(c2ncnc3[nH]ccc23)CC1
REMARK SMILES IDX 6 1 5 2 3 3 4 4 2 6 17 7 30 8 18 9 29 10 19 11 1 12 20 15
REMARK SMILES IDX 28 16 21 17 27 18 24 19 22 20 26 21 25 22 23 23 7 25 8 26
REMARK SMILES IDX 9 27 10 29 11 30 16 31 12 32 15 33 13 34 14 35
REMARK H PARENT 5 5 1 13 1 14 25 24 9 28
REMARK Flexibility Score: inf
ROOT
ATOM      1  C   UNL     1      -3.368  -0.269  -1.245  1.00  0.00     0.114 C 
ENDROOT
BRANCH   1   2
ATOM      2  N   UNL     1      -1.917  -0.364  -1.035  1.00  0.00    -0.348 N 
ATOM      3  C   UNL     1      -1.065   0.796  -1.074  1.00  0.00     0.240 C 
ATOM      4  O   UNL     1      -1.567   1.918  -1.362  1.00  0.00    -0.273 OA
ATOM      5  H   UNL     1      -1.485  -1.300  -0.876  1.00  0.00     0.164 HD
BRANCH   3   6
ATOM      6  C   UNL     1       0.420   0.678  -0.736  1.00  0.00     0.099 C 
ATOM      7  C   UNL     1       1.115  -0.266  -1.752  1.00  0.00     0.054 C 
ATOM      8  C   UNL     1       1.130   2.070  -0.789  1.00  0.00     0.054 C 
ATOM      9  C   UNL     1       2.593  -0.508  -1.384  1.00  0.00     0.120 C 
ATOM     10  C   UNL     1       2.655   1.984  -1.015  1.00  0.00     0.120 C 
ATOM     11  N   UNL     1       3.164   0.650  -0.680  1.00  0.00    -0.356 N 
BRANCH   6  12
ATOM     12  N   UNL     1       0.565   0.133   0.624  1.00  0.00    -0.317 NA
ATOM     13  H   UNL     1       0.199  -0.846   0.663  1.00  0.00     0.119 HD
ATOM     14  H   UNL     1      -0.007   0.702   1.292  1.00  0.00     0.119 HD
ENDBRANCH   6  12
BRANCH  11  15
ATOM     15  C   UNL     1       4.016   0.471   0.467  1.00  0.00     0.141 A 
ATOM     16  C   UNL     1       5.054  -0.466   0.497  1.00  0.00     0.061 A 
ATOM     17  N   UNL     1       3.824   1.229   1.590  1.00  0.00    -0.219 NA
ATOM     18  C   UNL     1       5.566  -1.343  -0.439  1.00  0.00     0.033 A 
ATOM     19  C   UNL     1       5.816  -0.597   1.620  1.00  0.00     0.142 A 
ATOM     20  C   UNL     1       4.605   1.079   2.705  1.00  0.00     0.226 A 
ATOM     21  C   UNL     1       6.629  -1.978   0.198  1.00  0.00     0.085 A 
ATOM     22  N   UNL     1       6.779  -1.517   1.461  1.00  0.00    -0.346 N 
ATOM     23  N   UNL     1       5.613   0.158   2.725  1.00  0.00    -0.218 NA
ATOM     24  H   UNL     1       7.502  -1.805   2.156  1.00  0.00     0.167 HD
ENDBRANCH  11  15
ENDBRANCH   3   6
ENDBRANCH   1   2
BRANCH   1  25
ATOM     25  C   UNL     1      -4.009  -1.665  -1.420  1.00  0.00     0.058 C 
BRANCH  25  26
ATOM     26  C   UNL     1      -4.022  -2.522  -0.147  1.00  0.00     0.158 C 
BRANCH  26  27
ATOM     27  O   UNL     1      -4.499  -3.801  -0.456  1.00  0.00    -0.396 OA
ATOM     28  H   UNL     1      -4.495  -4.311   0.396  1.00  0.00     0.210 HD
ENDBRANCH  26  27
ENDBRANCH  25  26
ENDBRANCH   1  25
BRANCH   1  29
ATOM     29  C   UNL     1      -4.040   0.525  -0.139  1.00  0.00    -0.025 A 
ATOM     30  C   UNL     1      -5.183   1.291  -0.428  1.00  0.00     0.007 A 
ATOM     31  C   UNL     1      -3.573   0.473   1.189  1.00  0.00     0.007 A 
ATOM     32  C   UNL     1      -5.830   2.009   0.582  1.00  0.00     0.021 A 
ATOM     33  C   UNL     1      -4.222   1.193   2.196  1.00  0.00     0.021 A 
ATOM     34  C   UNL     1      -5.349   1.963   1.894  1.00  0.00     0.041 A 
ATOM     35  Cl  UNL     1      -6.163   2.864   3.160  1.00  0.00    -0.084 Cl
ENDBRANCH   1  29
TORSDOF 8
