REMARK SMILES CCc1nc(C(N)=O)c(Nc2ccc(N3CCC(N4CCN(C)CC4)CC3)c(OC)c2)nc1NC1CCOCC1
REMARK SMILES IDX 10 1 9 3 3 4 33 5 4 6 32 7 5 8 2 9 1 10 34 11 35 13 36 14
REMARK SMILES IDX 40 15 37 16 39 17 38 18 6 19 7 20 8 21 11 24 12 25 31 26
REMARK SMILES IDX 13 27 28 28 14 29 29 30 30 31 15 32 16 33 27 34 17 35 26 36
REMARK SMILES IDX 18 37 19 38 20 39 25 40 21 41 24 42 22 43 23 44
REMARK H PARENT 10 2 34 12 7 22 7 23
REMARK Flexibility Score: inf
ROOT
ATOM      1  N   UNL     1      -2.249   0.023   1.758  1.00  0.00    -0.338 N 
ATOM      2  H   UNL     1      -2.384   0.712   2.531  1.00  0.00     0.168 HD
ENDROOT
BRANCH   1   3
ATOM      3  C   UNL     1      -3.428  -0.556   1.186  1.00  0.00     0.164 A 
ATOM      4  C   UNL     1      -5.667  -1.597  -0.063  1.00  0.00     0.084 A 
ATOM      5  C   UNL     1      -5.467  -0.201   0.003  1.00  0.00     0.150 A 
ATOM      6  N   UNL     1      -4.753  -2.416   0.522  1.00  0.00    -0.240 NA
ATOM      7  N   UNL     1      -4.352   0.266   0.627  1.00  0.00    -0.209 NA
ATOM      8  C   UNL     1      -3.640  -1.951   1.149  1.00  0.00     0.171 A 
BRANCH   4   9
ATOM      9  C   UNL     1      -6.874  -2.227  -0.708  1.00  0.00     0.057 C 
ATOM     10  C   UNL     1      -8.102  -2.118   0.191  1.00  0.00     0.011 C 
ENDBRANCH   4   9
BRANCH   5  11
ATOM     11  N   UNL     1      -6.396   0.734  -0.578  1.00  0.00    -0.366 N 
ATOM     12  H   UNL     1      -7.169   0.382  -1.183  1.00  0.00     0.162 HD
BRANCH  11  13
ATOM     13  C   UNL     1      -6.254   2.188  -0.403  1.00  0.00     0.085 C 
ATOM     14  C   UNL     1      -7.122   2.944  -1.424  1.00  0.00     0.053 C 
ATOM     15  C   UNL     1      -6.647   2.603   1.032  1.00  0.00     0.053 C 
ATOM     16  C   UNL     1      -8.631   2.793  -1.113  1.00  0.00     0.162 C 
ATOM     17  C   UNL     1      -8.158   2.884   1.158  1.00  0.00     0.162 C 
ATOM     18  O   UNL     1      -8.885   2.205   0.154  1.00  0.00    -0.381 OA
ENDBRANCH  11  13
ENDBRANCH   5  11
BRANCH   8  19
ATOM     19  C   UNL     1      -2.721  -2.926   1.783  1.00  0.00     0.271 C 
ATOM     20  N   UNL     1      -2.814  -4.318   1.470  1.00  0.00    -0.364 N 
ATOM     21  O   UNL     1      -1.859  -2.546   2.622  1.00  0.00    -0.268 OA
ATOM     22  H   UNL     1      -3.512  -4.675   0.780  1.00  0.00     0.160 HD
ATOM     23  H   UNL     1      -2.162  -4.999   1.920  1.00  0.00     0.160 HD
ENDBRANCH   8  19
ENDBRANCH   1   3
BRANCH   1  24
ATOM     24  C   UNL     1      -0.944  -0.087   1.156  1.00  0.00     0.043 A 
ATOM     25  C   UNL     1       0.162   0.471   1.811  1.00  0.00     0.028 A 
ATOM     26  C   UNL     1      -0.756  -0.721  -0.087  1.00  0.00     0.074 A 
ATOM     27  C   UNL     1       1.435   0.394   1.245  1.00  0.00     0.032 A 
ATOM     28  C   UNL     1       0.526  -0.800  -0.668  1.00  0.00     0.144 A 
ATOM     29  C   UNL     1       1.627  -0.240   0.009  1.00  0.00     0.079 A 
BRANCH  28  30
ATOM     30  O   UNL     1       0.736  -1.405  -1.919  1.00  0.00    -0.495 OA
ATOM     31  C   UNL     1      -0.279  -2.029  -2.696  1.00  0.00     0.278 C 
ENDBRANCH  28  30
BRANCH  29  32
ATOM     32  N   UNL     1       2.947  -0.292  -0.562  1.00  0.00    -0.368 N 
ATOM     33  C   UNL     1       3.537  -1.566  -0.990  1.00  0.00     0.118 C 
ATOM     34  C   UNL     1       3.671   0.950  -0.856  1.00  0.00     0.118 C 
ATOM     35  C   UNL     1       4.974  -1.678  -0.470  1.00  0.00     0.040 C 
ATOM     36  C   UNL     1       5.099   0.861  -0.312  1.00  0.00     0.040 C 
ATOM     37  C   UNL     1       5.793  -0.422  -0.837  1.00  0.00     0.060 C 
BRANCH  37  38
ATOM     38  N   UNL     1       7.205  -0.568  -0.393  1.00  0.00    -0.298 NA
ATOM     39  C   UNL     1       7.442  -0.501   1.073  1.00  0.00     0.100 C 
ATOM     40  C   UNL     1       8.134   0.260  -1.196  1.00  0.00     0.100 C 
ATOM     41  C   UNL     1       8.179   0.782   1.480  1.00  0.00     0.099 C 
ATOM     42  C   UNL     1       9.528   0.310  -0.554  1.00  0.00     0.099 C 
ATOM     43  N   UNL     1       9.501   0.877   0.819  1.00  0.00    -0.304 NA
ATOM     44  C   UNL     1       9.981   2.268   0.836  1.00  0.00     0.105 C 
ENDBRANCH  37  38
ENDBRANCH  29  32
ENDBRANCH   1  24
TORSDOF 9
