REMARK SMILES Cc1cn(-c2cc(NC(=O)c3ccc(C)c(Nc4nccc(-c5cnccn5)n4)c3)cc(C(F)(F)F)c2)cn1
REMARK SMILES IDX 11 1 12 2 13 3 14 4 15 5 16 6 30 7 9 8 8 9 10 11 7 12 5 13
REMARK SMILES IDX 6 14 37 15 32 16 31 17 4 18 1 19 2 20 3 21 39 22 38 23 33 24
REMARK SMILES IDX 34 25 35 26 36 27 17 28 18 30 19 31 29 32 20 33 22 34 21 35
REMARK SMILES IDX 23 36 24 37 28 38 25 39 27 40 26 41
REMARK H PARENT 8 10 17 29
REMARK Flexibility Score: inf
ROOT
ATOM      1  C   UNL     1      -0.261   2.064   0.199  1.00  0.00     0.042 A 
ATOM      2  C   UNL     1      -0.068   3.383  -0.241  1.00  0.00     0.014 A 
ATOM      3  C   UNL     1      -1.134   4.119  -0.760  1.00  0.00     0.006 A 
ATOM      4  C   UNL     1      -2.413   3.551  -0.866  1.00  0.00    -0.027 A 
ATOM      5  C   UNL     1      -3.544   4.371  -1.428  1.00  0.00     0.046 C 
ATOM      6  C   UNL     1      -2.618   2.218  -0.445  1.00  0.00     0.045 A 
ATOM      7  C   UNL     1      -1.540   1.492   0.095  1.00  0.00     0.040 A 
ENDROOT
BRANCH   1   8
ATOM      8  C   UNL     1       0.865   1.276   0.755  1.00  0.00     0.255 C 
ATOM      9  N   UNL     1       2.023   1.930   1.299  1.00  0.00    -0.322 N 
ATOM     10  H   UNL     1       1.908   2.894   1.684  1.00  0.00     0.170 HD
ATOM     11  O   UNL     1       0.783   0.017   0.790  1.00  0.00    -0.269 OA
BRANCH   9  12
ATOM     12  C   UNL     1       3.287   1.271   1.497  1.00  0.00     0.044 A 
ATOM     13  C   UNL     1       4.980  -0.344   0.799  1.00  0.00     0.049 A 
ATOM     14  C   UNL     1       3.737   0.283   0.607  1.00  0.00     0.052 A 
ATOM     15  C   UNL     1       5.779   0.045   1.888  1.00  0.00     0.039 A 
ATOM     16  C   UNL     1       5.362   1.064   2.761  1.00  0.00     0.060 A 
ATOM     17  C   UNL     1       4.106   1.661   2.564  1.00  0.00     0.039 A 
BRANCH  13  18
ATOM     18  N   UNL     1       5.431  -1.369  -0.109  1.00  0.00    -0.306 N 
ATOM     19  C   UNL     1       7.862  -3.373  -1.939  1.00  0.00     0.068 C 
ATOM     20  C   UNL     1       6.673  -2.740  -1.298  1.00  0.00     0.056 A 
ATOM     21  C   UNL     1       6.703  -1.712  -0.384  1.00  0.00     0.116 A 
ATOM     22  N   UNL     1       5.398  -3.039  -1.617  1.00  0.00    -0.242 NA
ATOM     23  C   UNL     1       4.667  -2.188  -0.866  1.00  0.00     0.204 A 
ENDBRANCH  13  18
BRANCH  16  24
ATOM     24  C   UNL     1       6.210   1.435   3.953  1.00  0.00     0.416 C 
ATOM     25  F   UNL     1       7.554   1.354   3.634  1.00  0.00    -0.166 F 
ATOM     26  F   UNL     1       5.940   0.562   4.991  1.00  0.00    -0.166 F 
ATOM     27  F   UNL     1       5.943   2.728   4.369  1.00  0.00    -0.166 F 
ENDBRANCH  16  24
ENDBRANCH   9  12
ENDBRANCH   1   8
BRANCH   6  28
ATOM     28  N   UNL     1      -3.931   1.628  -0.502  1.00  0.00    -0.324 N 
ATOM     29  H   UNL     1      -4.761   2.228  -0.301  1.00  0.00     0.170 HD
BRANCH  28  30
ATOM     30  C   UNL     1      -4.177   0.255  -0.836  1.00  0.00     0.227 A 
ATOM     31  N   UNL     1      -3.208  -0.509  -1.409  1.00  0.00    -0.221 NA
ATOM     32  N   UNL     1      -5.403  -0.282  -0.600  1.00  0.00    -0.211 NA
ATOM     33  C   UNL     1      -3.438  -1.807  -1.728  1.00  0.00     0.117 A 
ATOM     34  C   UNL     1      -5.686  -1.580  -0.901  1.00  0.00     0.096 A 
ATOM     35  C   UNL     1      -4.685  -2.376  -1.479  1.00  0.00     0.051 A 
BRANCH  34  36
ATOM     36  C   UNL     1      -7.033  -2.129  -0.615  1.00  0.00     0.107 A 
ATOM     37  C   UNL     1      -8.046  -1.328  -0.059  1.00  0.00     0.141 A 
ATOM     38  N   UNL     1      -7.312  -3.435  -0.885  1.00  0.00    -0.251 NA
ATOM     39  N   UNL     1      -9.267  -1.867   0.190  1.00  0.00    -0.261 NA
ATOM     40  C   UNL     1      -8.533  -3.972  -0.631  1.00  0.00     0.132 A 
ATOM     41  C   UNL     1      -9.533  -3.170  -0.083  1.00  0.00     0.131 A 
ENDBRANCH  34  36
ENDBRANCH  28  30
ENDBRANCH   6  28
TORSDOF 7
