REMARK SMILES CCC(=O)O[C@]1(C(=O)CO)CC[C@H]2[C@@H]3CCC4=CC(=O)CC[C@]4(C)[C@H]3CC[C@@]21C
REMARK SMILES IDX 13 1 12 2 11 3 6 4 28 5 29 6 27 7 26 8 25 9 14 10 15 11
REMARK SMILES IDX 16 12 17 13 18 14 19 15 20 16 21 17 22 18 23 19 24 20 5 21
REMARK SMILES IDX 3 22 4 23 2 24 1 25 7 26 8 27 9 28 10 29
REMARK H PARENT 10 30
REMARK Flexibility Score: inf
ROOT
ATOM      1  C   UNL     1       0.564  -0.121  -1.068  1.00  0.00     0.003 C 
ATOM      2  C   UNL     1       1.389  -0.320  -2.332  1.00  0.00     0.009 C 
ATOM      3  C   UNL     1       2.735  -0.872  -1.832  1.00  0.00     0.058 C 
ATOM      4  C   UNL     1       2.595  -1.104  -0.290  1.00  0.00     0.178 C 
ATOM      5  C   UNL     1       1.046  -1.222  -0.109  1.00  0.00     0.018 C 
ATOM      6  C   UNL     1       0.563  -2.654  -0.526  1.00  0.00     0.016 C 
ATOM      7  C   UNL     1       0.499  -0.884   1.301  1.00  0.00     0.012 C 
ATOM      8  C   UNL     1      -1.042  -0.750   1.300  1.00  0.00     0.005 C 
ATOM      9  C   UNL     1      -1.578   0.242   0.218  1.00  0.00     0.002 C 
ATOM     10  C   UNL     1      -0.975  -0.052  -1.196  1.00  0.00    -0.003 C 
ATOM     11  C   UNL     1      -1.390   1.059  -2.175  1.00  0.00     0.008 C 
ATOM     12  C   UNL     1      -2.908   1.131  -2.305  1.00  0.00     0.032 C 
ATOM     13  C   UNL     1      -3.562   1.304  -0.954  1.00  0.00    -0.060 C 
ATOM     14  C   UNL     1      -4.619   2.131  -0.855  1.00  0.00     0.047 C 
ATOM     15  C   UNL     1      -5.398   2.259   0.383  1.00  0.00     0.155 C 
ATOM     16  O   UNL     1      -6.361   3.069   0.432  1.00  0.00    -0.295 OA
ATOM     17  C   UNL     1      -5.099   1.390   1.561  1.00  0.00     0.081 C 
ATOM     18  C   UNL     1      -3.626   0.973   1.562  1.00  0.00     0.019 C 
ATOM     19  C   UNL     1      -3.152   0.373   0.198  1.00  0.00    -0.008 C 
ATOM     20  C   UNL     1      -3.840  -0.998  -0.024  1.00  0.00     0.016 C 
ENDROOT
BRANCH   4  21
ATOM     21  O   UNL     1       3.063   0.073   0.390  1.00  0.00    -0.450 OA
BRANCH  21  22
ATOM     22  C   UNL     1       4.393   0.518   0.420  1.00  0.00     0.306 C 
ATOM     23  O   UNL     1       5.311  -0.140  -0.142  1.00  0.00    -0.252 OA
BRANCH  22  24
ATOM     24  C   UNL     1       4.712   1.813   1.093  1.00  0.00     0.119 C 
ATOM     25  C   UNL     1       4.413   2.982   0.163  1.00  0.00     0.016 C 
ENDBRANCH  22  24
ENDBRANCH  21  22
ENDBRANCH   4  21
BRANCH   4  26
ATOM     26  C   UNL     1       3.360  -2.338   0.219  1.00  0.00     0.202 C 
ATOM     27  O   UNL     1       3.790  -3.156  -0.581  1.00  0.00    -0.293 OA
BRANCH  26  28
ATOM     28  C   UNL     1       3.562  -2.639   1.686  1.00  0.00     0.236 C 
BRANCH  28  29
ATOM     29  O   UNL     1       3.296  -1.527   2.494  1.00  0.00    -0.388 OA
ATOM     30  H   UNL     1       3.362  -1.844   3.431  1.00  0.00     0.211 HD
ENDBRANCH  28  29
ENDBRANCH  26  28
ENDBRANCH   4  26
TORSDOF 6
