REMARK SMILES C[C@H]1Oc2cc(cnc2N)-c2c(nn(C)c2C#N)CN(C)C(=O)c2ccc(F)cc21
REMARK SMILES IDX 1 1 2 2 3 3 4 4 9 5 8 6 7 7 6 8 5 9 11 10 16 11 14 12 15 13
REMARK SMILES IDX 13 14 12 15 19 16 20 17 21 18 22 19 23 20 24 21 30 22 29 23
REMARK SMILES IDX 27 24 28 25 26 26 25 27 10 28 17 31 18 32
REMARK H PARENT 10 29 10 30
REMARK Flexibility Score: inf
ROOT
ATOM      1  C   UNL     1      -3.082   1.366   0.946  1.00  0.00     0.058 C 
ATOM      2  C   UNL     1      -3.011   0.885  -0.509  1.00  0.00     0.201 C 
ATOM      3  O   UNL     1      -2.226   1.768  -1.325  1.00  0.00    -0.482 OA
ATOM      4  C   UNL     1      -0.827   1.775  -1.467  1.00  0.00     0.162 A 
ATOM      5  C   UNL     1      -0.250   2.395  -2.587  1.00  0.00     0.166 A 
ATOM      6  N   UNL     1       1.101   2.370  -2.755  1.00  0.00    -0.235 NA
ATOM      7  C   UNL     1       1.930   1.764  -1.865  1.00  0.00     0.122 A 
ATOM      8  C   UNL     1       1.403   1.148  -0.722  1.00  0.00     0.009 A 
ATOM      9  C   UNL     1       0.022   1.180  -0.528  1.00  0.00     0.061 A 
ATOM     10  C   UNL     1       2.276   0.474   0.267  1.00  0.00     0.045 A 
ATOM     11  C   UNL     1       3.509   0.897   0.736  1.00  0.00     0.146 A 
ATOM     12  N   UNL     1       3.965  -0.004   1.628  1.00  0.00    -0.257 N 
ATOM     13  C   UNL     1       5.200   0.083   2.400  1.00  0.00     0.175 C 
ATOM     14  N   UNL     1       3.087  -0.984   1.763  1.00  0.00    -0.174 NA
ATOM     15  C   UNL     1       2.043  -0.721   0.949  1.00  0.00     0.091 A 
ATOM     16  C   UNL     1       0.869  -1.657   0.793  1.00  0.00     0.178 C 
ATOM     17  N   UNL     1      -0.196  -1.383   1.780  1.00  0.00    -0.336 N 
ATOM     18  C   UNL     1       0.131  -1.394   3.212  1.00  0.00     0.147 C 
ATOM     19  C   UNL     1      -1.597  -1.292   1.407  1.00  0.00     0.254 C 
ATOM     20  O   UNL     1      -2.467  -1.116   2.303  1.00  0.00    -0.269 OA
ATOM     21  C   UNL     1      -2.060  -1.550   0.026  1.00  0.00     0.047 A 
ATOM     22  C   UNL     1      -2.711  -0.590  -0.819  1.00  0.00     0.008 A 
ATOM     23  C   UNL     1      -3.080  -1.000  -2.119  1.00  0.00     0.047 A 
ATOM     24  C   UNL     1      -2.856  -2.301  -2.567  1.00  0.00     0.123 A 
ATOM     25  F   UNL     1      -3.228  -2.659  -3.821  1.00  0.00    -0.207 F 
ATOM     26  C   UNL     1      -2.254  -3.231  -1.730  1.00  0.00     0.040 A 
ATOM     27  C   UNL     1      -1.864  -2.862  -0.446  1.00  0.00     0.017 A 
ENDROOT
BRANCH   5  28
ATOM     28  N   UNL     1      -1.064   3.038  -3.571  1.00  0.00    -0.381 N 
ATOM     29  H   UNL     1      -2.104   3.073  -3.482  1.00  0.00     0.158 HD
ATOM     30  H   UNL     1      -0.622   3.487  -4.403  1.00  0.00     0.158 HD
ENDBRANCH   5  28
BRANCH  11  31
ATOM     31  C   UNL     1       4.176   2.134   0.409  1.00  0.00     0.120 C 
ATOM     32  N   UNL     1       4.711   3.126   0.148  1.00  0.00    -0.191 NA
ENDBRANCH  11  31
TORSDOF 2
