REMARK SMILES CO[C@H]1C[C@H](O[C@H]2CC[C@@]3(C)[C@H](CC[C@@H]4[C@@H]3CC[C@]3(C)[C@@H](C5=CC(=O)OC5)[C@@H](OC(C)=O)C[C@]43O)C2)O[C@@H](C)[C@@H]1O
REMARK SMILES IDX 7 1 8 2 9 3 10 4 11 5 12 6 13 7 14 8 15 9 16 10 17 11 18 12
REMARK SMILES IDX 19 13 20 14 21 15 28 16 33 17 34 18 36 19 6 20 5 21 3 22
REMARK SMILES IDX 4 23 40 24 38 25 37 26 39 27 2 28 1 29 41 30 35 32 22 34
REMARK SMILES IDX 23 35 27 36 24 37 26 38 25 39 29 40 30 41 31 42 32 43
REMARK H PARENT 41 31 35 33
REMARK Flexibility Score: inf
ROOT
ATOM      1  C   UNL     1       3.250  -0.599   0.389  1.00  0.00     0.121 C 
ATOM      2  C   UNL     1       2.775   0.070   1.685  1.00  0.00     0.033 C 
ATOM      3  C   UNL     1       1.241   0.173   1.746  1.00  0.00     0.010 C 
ATOM      4  C   UNL     1       0.604   0.932   0.540  1.00  0.00    -0.026 C 
ATOM      5  C   UNL     1       1.079   2.423   0.576  1.00  0.00     0.012 C 
ATOM      6  C   UNL     1       1.130   0.295  -0.799  1.00  0.00    -0.002 C 
ATOM      7  C   UNL     1       0.469  -1.059  -1.146  1.00  0.00     0.005 C 
ATOM      8  C   UNL     1      -1.056  -1.091  -0.975  1.00  0.00     0.007 C 
ATOM      9  C   UNL     1      -1.680   0.280  -0.622  1.00  0.00     0.025 C 
ATOM     10  C   UNL     1      -0.997   0.823   0.667  1.00  0.00     0.001 C 
ATOM     11  C   UNL     1      -1.696   2.116   1.141  1.00  0.00     0.005 C 
ATOM     12  C   UNL     1      -3.198   1.920   1.329  1.00  0.00     0.011 C 
ATOM     13  C   UNL     1      -3.936   1.449   0.037  1.00  0.00     0.007 C 
ATOM     14  C   UNL     1      -3.986   2.634  -0.965  1.00  0.00     0.015 C 
ATOM     15  C   UNL     1      -5.355   0.947   0.460  1.00  0.00     0.069 C 
ATOM     16  C   UNL     1      -5.146  -0.525   0.900  1.00  0.00     0.187 C 
ATOM     17  C   UNL     1      -3.777  -0.958   0.366  1.00  0.00     0.082 C 
ATOM     18  C   UNL     1      -3.254   0.180  -0.548  1.00  0.00     0.077 C 
ATOM     19  C   UNL     1       2.675   0.144  -0.840  1.00  0.00     0.036 C 
ENDROOT
BRANCH   1  20
ATOM     20  O   UNL     1       4.666  -0.558   0.360  1.00  0.00    -0.349 OA
BRANCH  20  21
ATOM     21  C   UNL     1       5.217  -1.562  -0.487  1.00  0.00     0.253 C 
ATOM     22  C   UNL     1       7.438  -0.387  -0.673  1.00  0.00     0.154 C 
ATOM     23  C   UNL     1       6.232  -0.927  -1.446  1.00  0.00     0.097 C 
ATOM     24  C   UNL     1       8.004  -1.502   0.219  1.00  0.00     0.172 C 
ATOM     25  C   UNL     1       6.875  -2.119   1.089  1.00  0.00     0.149 C 
ATOM     26  O   UNL     1       5.814  -2.600   0.279  1.00  0.00    -0.347 OA
ATOM     27  C   UNL     1       7.412  -3.293   1.914  1.00  0.00     0.041 C 
BRANCH  22  28
ATOM     28  O   UNL     1       8.439   0.029  -1.587  1.00  0.00    -0.378 OA
ATOM     29  C   UNL     1       8.372   1.426  -1.784  1.00  0.00     0.195 C 
ENDBRANCH  22  28
BRANCH  24  30
ATOM     30  O   UNL     1       9.051  -1.002   1.014  1.00  0.00    -0.388 OA
ATOM     31  H   UNL     1       8.657  -0.344   1.647  1.00  0.00     0.211 HD
ENDBRANCH  24  30
ENDBRANCH  20  21
ENDBRANCH   1  20
BRANCH  18  32
ATOM     32  O   UNL     1      -3.740  -0.010  -1.862  1.00  0.00    -0.389 OA
ATOM     33  H   UNL     1      -3.598  -0.948  -2.143  1.00  0.00     0.211 HD
ENDBRANCH  18  32
BRANCH  15  34
ATOM     34  C   UNL     1      -6.479   1.134  -0.564  1.00  0.00    -0.018 C 
ATOM     35  C   UNL     1      -7.566   1.853  -0.297  1.00  0.00     0.096 C 
ATOM     36  C   UNL     1      -6.636   0.455  -1.917  1.00  0.00     0.265 C 
ATOM     37  C   UNL     1      -8.485   1.672  -1.391  1.00  0.00     0.331 C 
ATOM     38  O   UNL     1      -7.940   0.834  -2.339  1.00  0.00    -0.458 OA
ATOM     39  O   UNL     1      -9.631   2.186  -1.476  1.00  0.00    -0.247 OA
ENDBRANCH  15  34
BRANCH  16  40
ATOM     40  O   UNL     1      -6.159  -1.423   0.441  1.00  0.00    -0.462 OA
BRANCH  40  41
ATOM     41  C   UNL     1      -7.445  -1.483   0.981  1.00  0.00     0.302 C 
ATOM     42  C   UNL     1      -8.416  -2.471   0.430  1.00  0.00     0.139 C 
ATOM     43  O   UNL     1      -7.791  -0.721   1.921  1.00  0.00    -0.253 OA
ENDBRANCH  40  41
ENDBRANCH  16  40
TORSDOF 8
