REMARK SMILES COc1cc2c(Oc3ccc(NC(=O)C4(C(=O)Nc5ccc(F)cc5)CC4)cc3F)ccnc2cc1OCCCN1CCOCC1
REMARK SMILES IDX 3 1 36 2 35 3 34 4 33 5 32 6 31 7 6 8 5 9 4 10 2 11 1 12
REMARK SMILES IDX 37 13 38 14 39 15 40 16 41 17 42 18 46 19 43 20 45 21 44 22
REMARK SMILES IDX 7 23 8 24 9 25 29 26 10 27 28 28 30 29 11 30 12 31 13 32
REMARK SMILES IDX 14 34 15 35 26 36 27 37 16 38 17 39 18 40 19 42 20 43 25 44
REMARK SMILES IDX 21 45 24 46 22 47 23 48
REMARK H PARENT 12 33 18 41
REMARK Flexibility Score: inf
ROOT
ATOM      1  C   UNL     1       3.961  -1.510  -1.159  1.00  0.00     0.161 A 
ATOM      2  C   UNL     1       4.881  -0.455  -1.258  1.00  0.00     0.163 A 
ATOM      3  C   UNL     1       4.437   0.825  -1.641  1.00  0.00     0.079 A 
ATOM      4  C   UNL     1       3.088   1.052  -1.922  1.00  0.00     0.078 A 
ATOM      5  N   UNL     1       2.674   2.295  -2.287  1.00  0.00    -0.256 NA
ATOM      6  C   UNL     1       1.374   2.560  -2.576  1.00  0.00     0.115 A 
ATOM      7  C   UNL     1       0.418   1.546  -2.506  1.00  0.00     0.068 A 
ATOM      8  C   UNL     1       0.802   0.247  -2.128  1.00  0.00     0.138 A 
ATOM      9  C   UNL     1       2.156  -0.007  -1.832  1.00  0.00     0.047 A 
ATOM     10  C   UNL     1       2.600  -1.283  -1.448  1.00  0.00     0.064 A 
ENDROOT
BRANCH   1  11
ATOM     11  O   UNL     1       4.440  -2.772  -0.773  1.00  0.00    -0.493 OA
ATOM     12  C   UNL     1       3.636  -3.941  -0.652  1.00  0.00     0.278 C 
ENDBRANCH   1  11
BRANCH   2  13
ATOM     13  O   UNL     1       6.229  -0.719  -0.969  1.00  0.00    -0.490 OA
BRANCH  13  14
ATOM     14  C   UNL     1       7.285   0.231  -1.089  1.00  0.00     0.231 C 
BRANCH  14  15
ATOM     15  C   UNL     1       8.618  -0.422  -0.715  1.00  0.00     0.057 C 
BRANCH  15  16
ATOM     16  C   UNL     1       8.690  -0.815   0.771  1.00  0.00     0.088 C 
BRANCH  16  17
ATOM     17  N   UNL     1       8.538   0.352   1.669  1.00  0.00    -0.299 NA
ATOM     18  C   UNL     1       9.661   1.310   1.521  1.00  0.00     0.113 C 
ATOM     19  C   UNL     1       8.338  -0.070   3.077  1.00  0.00     0.113 C 
ATOM     20  C   UNL     1       9.905   2.096   2.820  1.00  0.00     0.175 C 
ATOM     21  C   UNL     1       9.652  -0.019   3.880  1.00  0.00     0.175 C 
ATOM     22  O   UNL     1      10.262   1.265   3.917  1.00  0.00    -0.379 OA
ENDBRANCH  16  17
ENDBRANCH  15  16
ENDBRANCH  14  15
ENDBRANCH  13  14
ENDBRANCH   2  13
BRANCH   8  23
ATOM     23  O   UNL     1      -0.126  -0.810  -2.091  1.00  0.00    -0.454 OA
BRANCH  23  24
ATOM     24  C   UNL     1      -1.513  -0.658  -1.974  1.00  0.00     0.163 A 
ATOM     25  C   UNL     1      -2.345  -1.388  -2.827  1.00  0.00     0.052 A 
ATOM     26  C   UNL     1      -2.084   0.171  -0.994  1.00  0.00     0.167 A 
ATOM     27  C   UNL     1      -3.734  -1.257  -2.745  1.00  0.00     0.030 A 
ATOM     28  C   UNL     1      -3.475   0.294  -0.904  1.00  0.00     0.069 A 
ATOM     29  F   UNL     1      -1.299   0.822  -0.099  1.00  0.00    -0.203 F 
ATOM     30  C   UNL     1      -4.313  -0.397  -1.800  1.00  0.00     0.044 A 
BRANCH  30  31
ATOM     31  N   UNL     1      -5.748  -0.297  -1.734  1.00  0.00    -0.325 N 
ATOM     32  C   UNL     1      -6.472   0.878  -1.338  1.00  0.00     0.240 C 
ATOM     33  H   UNL     1      -6.308  -1.099  -2.103  1.00  0.00     0.169 HD
ATOM     34  O   UNL     1      -5.870   1.952  -1.070  1.00  0.00    -0.273 OA
BRANCH  32  35
ATOM     35  C   UNL     1      -7.970   0.829  -1.257  1.00  0.00     0.128 C 
ATOM     36  C   UNL     1      -8.735   2.048  -1.760  1.00  0.00     0.028 C 
ATOM     37  C   UNL     1      -8.699   0.775  -2.596  1.00  0.00     0.028 C 
BRANCH  35  38
ATOM     38  C   UNL     1      -8.604   0.068  -0.133  1.00  0.00     0.240 C 
ATOM     39  O   UNL     1      -8.947  -1.132  -0.310  1.00  0.00    -0.274 OA
ATOM     40  N   UNL     1      -8.748   0.685   1.154  1.00  0.00    -0.325 N 
ATOM     41  H   UNL     1      -8.167   1.529   1.360  1.00  0.00     0.169 HD
BRANCH  40  42
ATOM     42  C   UNL     1      -9.570   0.150   2.204  1.00  0.00     0.041 A 
ATOM     43  C   UNL     1     -10.795  -0.486   1.922  1.00  0.00     0.029 A 
ATOM     44  C   UNL     1      -9.173   0.310   3.541  1.00  0.00     0.029 A 
ATOM     45  C   UNL     1     -11.590  -0.977   2.963  1.00  0.00     0.041 A 
ATOM     46  C   UNL     1      -9.970  -0.184   4.580  1.00  0.00     0.041 A 
ATOM     47  C   UNL     1     -11.175  -0.832   4.290  1.00  0.00     0.123 A 
ATOM     48  F   UNL     1     -11.947  -1.310   5.297  1.00  0.00    -0.207 F 
ENDBRANCH  40  42
ENDBRANCH  35  38
ENDBRANCH  32  35
ENDBRANCH  30  31
ENDBRANCH  23  24
ENDBRANCH   8  23
TORSDOF 12
