REMARK SMILES CC(C)(C)NCC(O)c1ccccc1Cl
REMARK SMILES IDX 6 1 5 2 2 4 1 5 3 6 4 7 7 8 8 9 9 11 10 12 14 13 11 14 13 15
REMARK SMILES IDX 15 16 12 17
REMARK H PARENT 5 3 8 10
REMARK Flexibility Score: inf
ROOT
ATOM      1  C   UNL     1      -0.331  -1.432   0.513  1.00  0.00     0.118 C 
ENDROOT
BRANCH   1   2
ATOM      2  N   UNL     1      -0.879  -0.670  -0.623  1.00  0.00    -0.309 NA
ATOM      3  H   UNL     1      -1.116  -1.359  -1.376  1.00  0.00     0.123 HD
BRANCH   2   4
ATOM      4  C   UNL     1      -2.072   0.159  -0.319  1.00  0.00     0.010 C 
ATOM      5  C   UNL     1      -3.183  -0.665   0.370  1.00  0.00     0.027 C 
ATOM      6  C   UNL     1      -1.677   1.366   0.561  1.00  0.00     0.027 C 
ATOM      7  C   UNL     1      -2.624   0.707  -1.651  1.00  0.00     0.027 C 
ENDBRANCH   2   4
ENDBRANCH   1   2
BRANCH   1   8
ATOM      8  C   UNL     1       1.142  -1.789   0.237  1.00  0.00     0.159 C 
BRANCH   8   9
ATOM      9  O   UNL     1       1.662  -2.650   1.223  1.00  0.00    -0.387 OA
ATOM     10  H   UNL     1       1.369  -2.327   2.115  1.00  0.00     0.211 HD
ENDBRANCH   8   9
BRANCH   8  11
ATOM     11  C   UNL     1       1.994  -0.533   0.115  1.00  0.00     0.000 A 
ATOM     12  C   UNL     1       2.324   0.200   1.274  1.00  0.00     0.008 A 
ATOM     13  C   UNL     1       2.405  -0.029  -1.145  1.00  0.00     0.046 A 
ATOM     14  C   UNL     1       3.069   1.377   1.187  1.00  0.00     0.000 A 
ATOM     15  C   UNL     1       3.153   1.153  -1.216  1.00  0.00     0.021 A 
ATOM     16  Cl  UNL     1       1.993  -0.823  -2.663  1.00  0.00    -0.084 Cl
ATOM     17  C   UNL     1       3.486   1.851  -0.056  1.00  0.00     0.002 A 
ENDBRANCH   8  11
ENDBRANCH   1   8
TORSDOF 5
