REMARK SMILES CCc1nc2c(C)nc(C)cc2n1-c1ccc(CCNC(=O)NS(=O)(=O)c2ccc(C)cc2)cc1
REMARK SMILES IDX 18 1 17 2 14 3 15 4 35 5 16 6 34 7 13 8 3 9 4 10 5 11 12 12
REMARK SMILES IDX 6 13 11 14 7 15 8 16 9 17 10 18 2 19 1 20 19 21 20 22 21 23
REMARK SMILES IDX 22 25 23 26 24 28 25 29 26 30 27 31 28 32 33 33 29 34 32 35
REMARK SMILES IDX 30 36 31 37
REMARK H PARENT 20 24 23 27
REMARK Flexibility Score: inf
ROOT
ATOM      1  C   UNL     1       0.743  -0.170  -0.901  1.00  0.00     0.057 C 
ENDROOT
BRANCH   1   2
ATOM      2  C   UNL     1      -0.754  -0.014  -0.881  1.00  0.00    -0.046 A 
ATOM      3  C   UNL     1      -3.540   0.361  -0.815  1.00  0.00     0.047 A 
ATOM      4  C   UNL     1      -2.861  -0.086   0.327  1.00  0.00     0.027 A 
ATOM      5  C   UNL     1      -2.821   0.616  -1.991  1.00  0.00     0.027 A 
ATOM      6  C   UNL     1      -1.475  -0.265   0.297  1.00  0.00     0.006 A 
ATOM      7  C   UNL     1      -1.436   0.437  -2.022  1.00  0.00     0.006 A 
BRANCH   3   8
ATOM      8  N   UNL     1      -4.963   0.547  -0.780  1.00  0.00    -0.296 N 
ATOM      9  C   UNL     1      -5.669   1.697  -0.964  1.00  0.00     0.114 A 
ATOM     10  N   UNL     1      -7.009   1.534  -0.801  1.00  0.00    -0.231 NA
ATOM     11  C   UNL     1      -7.123   0.222  -0.521  1.00  0.00     0.110 A 
ATOM     12  C   UNL     1      -5.900  -0.373  -0.499  1.00  0.00     0.077 A 
ATOM     13  C   UNL     1      -8.281  -0.509  -0.259  1.00  0.00     0.065 A 
ATOM     14  C   UNL     1      -5.749  -1.732  -0.228  1.00  0.00     0.052 A 
ATOM     15  C   UNL     1      -9.631   0.133  -0.259  1.00  0.00     0.069 C 
ATOM     16  N   UNL     1      -8.145  -1.842   0.016  1.00  0.00    -0.256 NA
ATOM     17  C   UNL     1      -6.924  -2.468   0.032  1.00  0.00     0.040 A 
ATOM     18  C   UNL     1      -6.841  -3.926   0.351  1.00  0.00     0.067 C 
BRANCH   9  19
ATOM     19  C   UNL     1      -5.052   3.050  -1.180  1.00  0.00     0.072 C 
ATOM     20  C   UNL     1      -4.525   3.618   0.133  1.00  0.00     0.012 C 
ENDBRANCH   9  19
ENDBRANCH   3   8
ENDBRANCH   1   2
BRANCH   1  21
ATOM     21  C   UNL     1       1.425   1.132  -0.472  1.00  0.00     0.122 C 
BRANCH  21  22
ATOM     22  N   UNL     1       2.878   0.988  -0.519  1.00  0.00    -0.337 N 
ATOM     23  C   UNL     1       3.614   0.258   0.471  1.00  0.00     0.328 C 
ATOM     24  H   UNL     1       3.403   1.480  -1.277  1.00  0.00     0.165 HD
ATOM     25  O   UNL     1       3.015  -0.269   1.448  1.00  0.00    -0.248 OA
ATOM     26  N   UNL     1       5.035   0.135   0.352  1.00  0.00    -0.231 N 
ATOM     27  H   UNL     1       5.525   0.575  -0.459  1.00  0.00     0.185 HD
BRANCH  26  28
ATOM     28  S   UNL     1       5.976  -0.736   1.515  1.00  0.00     0.265 S 
ATOM     29  O   UNL     1       5.823  -0.101   2.870  1.00  0.00    -0.201 OA
ATOM     30  O   UNL     1       5.508  -2.162   1.584  1.00  0.00    -0.201 OA
BRANCH  28  31
ATOM     31  C   UNL     1       7.669  -0.695   1.034  1.00  0.00     0.087 A 
ATOM     32  C   UNL     1       8.501   0.346   1.468  1.00  0.00     0.022 A 
ATOM     33  C   UNL     1       8.183  -1.684   0.184  1.00  0.00     0.022 A 
ATOM     34  C   UNL     1       9.841   0.388   1.070  1.00  0.00     0.005 A 
ATOM     35  C   UNL     1       9.523  -1.642  -0.214  1.00  0.00     0.005 A 
ATOM     36  C   UNL     1      10.365  -0.615   0.240  1.00  0.00    -0.051 A 
ATOM     37  C   UNL     1      11.791  -0.547  -0.220  1.00  0.00     0.044 C 
ENDBRANCH  28  31
ENDBRANCH  26  28
ENDBRANCH  21  22
ENDBRANCH   1  21
TORSDOF 7
