REMARK SMILES O=C(Nc1ccc(OC(F)(F)Cl)cc1)c1cnc(N2CC[C@@H](O)C2)c(-c2ccn[nH]2)c1
REMARK SMILES IDX 2 1 1 2 3 3 15 5 18 6 25 7 17 8 31 9 16 10 19 11 22 12 21 13
REMARK SMILES IDX 24 14 20 15 23 16 26 18 27 19 30 20 28 21 29 22 4 24 5 25
REMARK SMILES IDX 14 26 6 27 13 28 7 29 8 30 9 31 10 32 11 33 12 34
REMARK H PARENT 3 4 23 17 30 23
REMARK Flexibility Score: inf
ROOT
ATOM      1  C   UNL     1       1.812  -0.161   0.511  1.00  0.00     0.257 C 
ATOM      2  O   UNL     1       2.304   0.736   1.249  1.00  0.00    -0.269 OA
ATOM      3  N   UNL     1       2.664  -1.191  -0.019  1.00  0.00    -0.322 N 
ATOM      4  H   UNL     1       2.248  -2.135  -0.187  1.00  0.00     0.170 HD
ENDROOT
BRANCH   1   5
ATOM      5  C   UNL     1       0.354  -0.160   0.234  1.00  0.00     0.059 A 
ATOM      6  C   UNL     1      -2.389  -0.150  -0.320  1.00  0.00     0.138 A 
ATOM      7  C   UNL     1      -1.894   0.657   0.729  1.00  0.00     0.043 A 
ATOM      8  N   UNL     1      -1.522  -0.889  -1.063  1.00  0.00    -0.238 NA
ATOM      9  C   UNL     1      -0.517   0.628   1.002  1.00  0.00     0.029 A 
ATOM     10  C   UNL     1      -0.186  -0.908  -0.823  1.00  0.00     0.127 A 
BRANCH   6  11
ATOM     11  N   UNL     1      -3.793  -0.248  -0.595  1.00  0.00    -0.353 N 
ATOM     12  C   UNL     1      -5.737  -0.713  -1.876  1.00  0.00     0.135 C 
ATOM     13  C   UNL     1      -6.078  -0.824  -0.387  1.00  0.00     0.055 C 
ATOM     14  C   UNL     1      -4.340  -0.098  -1.933  1.00  0.00     0.149 C 
ATOM     15  C   UNL     1      -4.740  -0.837   0.337  1.00  0.00     0.121 C 
BRANCH  12  16
ATOM     16  O   UNL     1      -6.661   0.098  -2.553  1.00  0.00    -0.391 OA
ATOM     17  H   UNL     1      -7.503  -0.427  -2.612  1.00  0.00     0.211 HD
ENDBRANCH  12  16
ENDBRANCH   6  11
BRANCH   7  18
ATOM     18  C   UNL     1      -2.761   1.578   1.499  1.00  0.00     0.069 A 
ATOM     19  C   UNL     1      -3.802   2.341   1.005  1.00  0.00     0.050 A 
ATOM     20  N   UNL     1      -2.609   1.854   2.808  1.00  0.00    -0.278 N 
ATOM     21  C   UNL     1      -4.252   3.059   2.095  1.00  0.00     0.135 A 
ATOM     22  N   UNL     1      -3.513   2.747   3.178  1.00  0.00    -0.184 NA
ATOM     23  H   UNL     1      -1.905   1.435   3.454  1.00  0.00     0.190 HD
ENDBRANCH   7  18
ENDBRANCH   1   5
BRANCH   3  24
ATOM     24  C   UNL     1       4.087  -1.047  -0.170  1.00  0.00     0.041 A 
ATOM     25  C   UNL     1       4.670   0.199  -0.458  1.00  0.00     0.030 A 
ATOM     26  C   UNL     1       4.909  -2.180  -0.092  1.00  0.00     0.030 A 
ATOM     27  C   UNL     1       6.053   0.313  -0.625  1.00  0.00     0.049 A 
ATOM     28  C   UNL     1       6.293  -2.066  -0.256  1.00  0.00     0.049 A 
ATOM     29  C   UNL     1       6.879  -0.823  -0.519  1.00  0.00     0.127 A 
BRANCH  29  30
ATOM     30  O   UNL     1       8.276  -0.770  -0.671  1.00  0.00    -0.420 OA
BRANCH  30  31
ATOM     31  C   UNL     1       9.053   0.408  -0.881  1.00  0.00     0.487 C 
ATOM     32  F   UNL     1      10.372   0.040  -1.069  1.00  0.00    -0.149 F 
ATOM     33  F   UNL     1       8.621   1.078  -2.011  1.00  0.00    -0.149 F 
ATOM     34  Cl  UNL     1       8.970   1.483   0.541  1.00  0.00     0.002 Cl
ENDBRANCH  30  31
ENDBRANCH  29  30
ENDBRANCH   3  24
TORSDOF 7
