REMARK SMILES CC[C@@H]1C(=O)N(C)c2cnc(Nc3ccc(C(=O)N[C@H]4CC[C@H](N5CCN(CC6CC6)CC5)CC4)cc3OC)nc2N1C(C)C
REMARK SMILES IDX 17 1 18 2 19 3 16 5 13 6 14 7 37 8 15 9 36 10 12 11 11 13
REMARK SMILES IDX 3 14 42 15 4 16 41 17 6 18 5 19 40 20 8 21 7 22 9 23 10 24
REMARK SMILES IDX 2 25 1 26 43 27 44 28 45 29 38 30 39 31 20 32 35 33 21 34
REMARK SMILES IDX 34 35 22 36 23 37 24 38 25 39 33 40 26 41 32 42 27 43 28 44
REMARK SMILES IDX 29 45 30 46 31 47
REMARK H PARENT 19 4 12 12
REMARK Flexibility Score: inf
ROOT
ATOM      1  C   UNL     1       1.075   0.802  -1.287  1.00  0.00     0.251 C 
ATOM      2  O   UNL     1       1.371   1.985  -1.609  1.00  0.00    -0.269 OA
ATOM      3  N   UNL     1       2.111  -0.170  -1.068  1.00  0.00    -0.349 N 
ATOM      4  H   UNL     1       1.821  -1.145  -0.820  1.00  0.00     0.164 HD
ENDROOT
BRANCH   1   5
ATOM      5  C   UNL     1      -0.344   0.432  -1.100  1.00  0.00     0.043 A 
ATOM      6  C   UNL     1      -3.030  -0.301  -0.663  1.00  0.00     0.084 A 
ATOM      7  C   UNL     1      -2.538   0.934  -0.201  1.00  0.00     0.031 A 
ATOM      8  C   UNL     1      -2.169  -1.171  -1.360  1.00  0.00     0.143 A 
ATOM      9  C   UNL     1      -1.213   1.304  -0.436  1.00  0.00     0.016 A 
ATOM     10  C   UNL     1      -0.827  -0.799  -1.567  1.00  0.00     0.062 A 
BRANCH   6  11
ATOM     11  N   UNL     1      -4.369  -0.725  -0.354  1.00  0.00    -0.321 N 
ATOM     12  H   UNL     1      -4.549  -1.748  -0.229  1.00  0.00     0.170 HD
BRANCH  11  13
ATOM     13  C   UNL     1      -5.500   0.150  -0.246  1.00  0.00     0.229 A 
ATOM     14  C   UNL     1     -10.235   0.526   0.566  1.00  0.00     0.173 C 
ATOM     15  N   UNL     1      -8.949  -0.023   1.042  1.00  0.00    -0.340 N 
ATOM     16  C   UNL     1     -10.130   2.027   0.489  1.00  0.00     0.249 C 
ATOM     17  C   UNL     1      -7.747   0.479   0.427  1.00  0.00     0.159 A 
ATOM     18  N   UNL     1      -8.884   2.639   0.088  1.00  0.00    -0.309 N 
ATOM     19  O   UNL     1     -11.150   2.731   0.722  1.00  0.00    -0.272 OA
ATOM     20  N   UNL     1      -6.644  -0.309   0.325  1.00  0.00    -0.193 NA
ATOM     21  C   UNL     1      -7.719   1.795  -0.063  1.00  0.00     0.105 A 
ATOM     22  C   UNL     1      -8.810   4.079  -0.188  1.00  0.00     0.153 C 
ATOM     23  C   UNL     1      -6.534   2.239  -0.674  1.00  0.00     0.145 A 
ATOM     24  N   UNL     1      -5.459   1.412  -0.753  1.00  0.00    -0.219 NA
BRANCH  14  25
ATOM     25  C   UNL     1     -10.592  -0.018  -0.833  1.00  0.00     0.032 C 
ATOM     26  C   UNL     1     -10.803  -1.528  -0.853  1.00  0.00     0.006 C 
ENDBRANCH  14  25
BRANCH  15  27
ATOM     27  C   UNL     1      -8.839  -0.732   2.337  1.00  0.00     0.078 C 
ATOM     28  C   UNL     1      -9.161   0.213   3.501  1.00  0.00     0.031 C 
ATOM     29  C   UNL     1      -9.714  -1.990   2.383  1.00  0.00     0.031 C 
ENDBRANCH  15  27
ENDBRANCH  11  13
ENDBRANCH   6  11
BRANCH   8  30
ATOM     30  O   UNL     1      -2.679  -2.392  -1.833  1.00  0.00    -0.495 OA
ATOM     31  C   UNL     1      -1.927  -3.346  -2.578  1.00  0.00     0.278 C 
ENDBRANCH   8  30
ENDBRANCH   1   5
BRANCH   3  32
ATOM     32  C   UNL     1       3.543   0.142  -1.157  1.00  0.00     0.082 C 
ATOM     33  C   UNL     1       3.950   1.106  -0.024  1.00  0.00     0.026 C 
ATOM     34  C   UNL     1       4.365  -1.163  -1.079  1.00  0.00     0.026 C 
ATOM     35  C   UNL     1       5.460   1.380  -0.030  1.00  0.00     0.021 C 
ATOM     36  C   UNL     1       5.874  -0.887  -1.065  1.00  0.00     0.021 C 
ATOM     37  C   UNL     1       6.244   0.052   0.102  1.00  0.00     0.057 C 
BRANCH  37  38
ATOM     38  N   UNL     1       7.716   0.220   0.195  1.00  0.00    -0.298 NA
ATOM     39  C   UNL     1       8.159   0.557   1.567  1.00  0.00     0.100 C 
ATOM     40  C   UNL     1       8.316   1.128  -0.798  1.00  0.00     0.100 C 
ATOM     41  C   UNL     1       9.639   1.008   1.603  1.00  0.00     0.100 C 
ATOM     42  C   UNL     1       9.846   0.915  -0.835  1.00  0.00     0.100 C 
ATOM     43  N   UNL     1      10.407   0.464   0.466  1.00  0.00    -0.301 NA
BRANCH  43  44
ATOM     44  C   UNL     1      10.549  -1.008   0.553  1.00  0.00     0.088 C 
BRANCH  44  45
ATOM     45  C   UNL     1      11.835  -1.452  -0.167  1.00  0.00     0.003 C 
ATOM     46  C   UNL     1      12.501  -2.693   0.413  1.00  0.00     0.005 C 
ATOM     47  C   UNL     1      13.118  -1.316   0.635  1.00  0.00     0.005 C 
ENDBRANCH  44  45
ENDBRANCH  43  44
ENDBRANCH  37  38
ENDBRANCH   3  32
TORSDOF 10
