REMARK SMILES O=C(/C=C/C=C/c1ccc2c(c1)OCO2)N1CCCCC1
REMARK SMILES IDX 3 1 4 2 2 3 1 4 16 5 17 6 21 7 18 8 20 9 19 10 5 11 6 12
REMARK SMILES IDX 7 13 12 14 8 15 11 16 9 17 10 18 13 19 15 20 14 21
REMARK H PARENT
REMARK Flexibility Score: inf
ROOT
ATOM      1  C   UNL     1      -1.102   1.708  -1.707  1.00  0.00     0.071 C 
ATOM      2  C   UNL     1      -0.513   1.016  -0.727  1.00  0.00     0.006 C 
ENDROOT
BRANCH   1   3
ATOM      3  C   UNL     1      -2.566   1.745  -1.882  1.00  0.00     0.246 C 
ATOM      4  O   UNL     1      -3.069   2.667  -2.580  1.00  0.00    -0.270 OA
ATOM      5  N   UNL     1      -3.426   0.766  -1.274  1.00  0.00    -0.339 N 
ATOM      6  C   UNL     1      -4.716   1.193  -0.722  1.00  0.00     0.120 C 
ATOM      7  C   UNL     1      -3.258  -0.653  -1.614  1.00  0.00     0.120 C 
ATOM      8  C   UNL     1      -5.097   0.316   0.475  1.00  0.00     0.022 C 
ATOM      9  C   UNL     1      -3.631  -1.533  -0.418  1.00  0.00     0.022 C 
ATOM     10  C   UNL     1      -5.024  -1.171   0.110  1.00  0.00     0.004 C 
ENDBRANCH   1   3
BRANCH   2  11
ATOM     11  C   UNL     1       0.951   1.016  -0.572  1.00  0.00     0.001 C 
ATOM     12  C   UNL     1       1.536   0.310   0.404  1.00  0.00     0.008 C 
BRANCH  12  13
ATOM     13  C   UNL     1       3.003   0.249   0.615  1.00  0.00    -0.022 A 
ATOM     14  C   UNL     1       3.528  -0.823   1.372  1.00  0.00     0.058 A 
ATOM     15  C   UNL     1       3.890   1.245   0.113  1.00  0.00     0.012 A 
ATOM     16  C   UNL     1       4.903  -0.874   1.578  1.00  0.00     0.166 A 
ATOM     17  C   UNL     1       5.275   1.153   0.346  1.00  0.00     0.051 A 
ATOM     18  C   UNL     1       5.740   0.071   1.085  1.00  0.00     0.165 A 
ATOM     19  O   UNL     1       5.634  -1.820   2.270  1.00  0.00    -0.454 OA
ATOM     20  O   UNL     1       7.040  -0.231   1.443  1.00  0.00    -0.454 OA
ATOM     21  C   UNL     1       7.017  -1.444   2.208  1.00  0.00     0.468 C 
ENDBRANCH  12  13
ENDBRANCH   2  11
TORSDOF 3
