REMARK SMILES COc1cccc(CCc2ccccc2OCC(CN(C)C)OC(=O)CCC(=O)O)c1
REMARK SMILES IDX 17 1 16 2 15 3 10 4 11 5 12 6 14 7 13 8 9 9 8 10 7 11 3 12
REMARK SMILES IDX 31 13 4 14 5 15 6 16 2 17 1 18 18 19 19 20 20 21 21 22 22 23
REMARK SMILES IDX 23 24 24 25 25 26 26 27 27 28 28 29 29 30 30 31
REMARK H PARENT 30 32
REMARK Flexibility Score: inf
ROOT
ATOM      1  C   UNL     1      -1.190  -1.819  -0.088  1.00  0.00     0.276 C 
ENDROOT
BRANCH   1   2
ATOM      2  O   UNL     1      -0.030  -1.052   0.243  1.00  0.00    -0.489 OA
BRANCH   2   3
ATOM      3  C   UNL     1      -0.017   0.167   0.946  1.00  0.00     0.122 A 
ATOM      4  C   UNL     1       1.138   0.975   0.877  1.00  0.00    -0.006 A 
ATOM      5  C   UNL     1       1.184   2.185   1.590  1.00  0.00     0.007 A 
ATOM      6  C   UNL     1       0.088   2.604   2.345  1.00  0.00     0.001 A 
ATOM      7  C   UNL     1      -1.112   0.598   1.724  1.00  0.00     0.047 A 
ATOM      8  C   UNL     1      -1.058   1.812   2.411  1.00  0.00     0.004 A 
BRANCH   4   9
ATOM      9  C   UNL     1       2.340   0.538   0.078  1.00  0.00     0.044 C 
BRANCH   9  10
ATOM     10  C   UNL     1       3.232  -0.390   0.907  1.00  0.00     0.040 C 
BRANCH  10  11
ATOM     11  C   UNL     1       4.428  -0.827   0.106  1.00  0.00    -0.044 A 
ATOM     12  C   UNL     1       6.703  -0.429  -0.689  1.00  0.00     0.119 A 
ATOM     13  C   UNL     1       5.594  -0.043   0.089  1.00  0.00     0.050 A 
ATOM     14  C   UNL     1       6.628  -1.600  -1.451  1.00  0.00     0.046 A 
ATOM     15  C   UNL     1       5.466  -2.376  -1.448  1.00  0.00     0.004 A 
ATOM     16  C   UNL     1       4.367  -1.989  -0.678  1.00  0.00     0.004 A 
BRANCH  12  17
ATOM     17  O   UNL     1       7.888   0.320  -0.734  1.00  0.00    -0.497 OA
ATOM     18  C   UNL     1       8.100   1.533  -0.019  1.00  0.00     0.278 C 
ENDBRANCH  12  17
ENDBRANCH  10  11
ENDBRANCH   9  10
ENDBRANCH   4   9
ENDBRANCH   2   3
ENDBRANCH   1   2
BRANCH   1  19
ATOM     19  C   UNL     1      -1.958  -1.157  -1.241  1.00  0.00     0.228 C 
BRANCH  19  20
ATOM     20  C   UNL     1      -2.946  -2.108  -1.975  1.00  0.00     0.132 C 
BRANCH  20  21
ATOM     21  N   UNL     1      -4.011  -2.745  -1.162  1.00  0.00    -0.306 NA
ATOM     22  C   UNL     1      -3.598  -3.951  -0.429  1.00  0.00     0.105 C 
ATOM     23  C   UNL     1      -4.795  -1.823  -0.330  1.00  0.00     0.105 C 
ENDBRANCH  20  21
ENDBRANCH  19  20
BRANCH  19  24
ATOM     24  O   UNL     1      -2.610   0.023  -0.772  1.00  0.00    -0.457 OA
BRANCH  24  25
ATOM     25  C   UNL     1      -2.943   1.108  -1.590  1.00  0.00     0.306 C 
ATOM     26  O   UNL     1      -2.762   1.058  -2.837  1.00  0.00    -0.252 OA
BRANCH  25  27
ATOM     27  C   UNL     1      -3.516   2.342  -0.968  1.00  0.00     0.134 C 
BRANCH  27  28
ATOM     28  C   UNL     1      -4.944   2.089  -0.485  1.00  0.00     0.134 C 
BRANCH  28  29
ATOM     29  C   UNL     1      -5.517   3.330   0.123  1.00  0.00     0.303 C 
ATOM     30  O   UNL     1      -5.502   3.487   1.374  1.00  0.00    -0.252 OA
BRANCH  29  31
ATOM     31  O   UNL     1      -6.027   4.331  -0.698  1.00  0.00    -0.481 OA
ATOM     32  H   UNL     1      -6.406   5.184  -0.303  1.00  0.00     0.296 HD
ENDBRANCH  29  31
ENDBRANCH  28  29
ENDBRANCH  27  28
ENDBRANCH  25  27
ENDBRANCH  24  25
ENDBRANCH  19  24
ENDBRANCH   1  19
TORSDOF 15
