REMARK SMILES COc1ccc(NC(=O)c2ccc(C(=N)N(C)C)cc2)c(C(=O)Nc2ccc(Cl)cn2)c1
REMARK SMILES IDX 3 1 4 2 5 3 6 4 21 5 32 6 2 7 1 8 22 9 23 10 24 11 25 13
REMARK SMILES IDX 26 14 31 15 27 16 30 17 28 18 29 19 7 20 8 21 9 23 10 24
REMARK SMILES IDX 11 25 20 26 12 27 19 28 13 29 14 30 15 31 16 32 17 34 18 35
REMARK H PARENT 24 12 7 22 15 33
REMARK Flexibility Score: inf
ROOT
ATOM      1  C   UNL     1       4.089   3.643  -1.045  1.00  0.00     0.119 A 
ATOM      2  C   UNL     1       2.956   4.310  -1.540  1.00  0.00     0.048 A 
ATOM      3  C   UNL     1       1.722   3.660  -1.588  1.00  0.00     0.031 A 
ATOM      4  C   UNL     1       1.590   2.342  -1.132  1.00  0.00     0.054 A 
ATOM      5  C   UNL     1       2.733   1.648  -0.662  1.00  0.00     0.067 A 
ATOM      6  C   UNL     1       3.968   2.318  -0.613  1.00  0.00     0.062 A 
ENDROOT
BRANCH   1   7
ATOM      7  O   UNL     1       5.350   4.253  -0.975  1.00  0.00    -0.497 OA
ATOM      8  C   UNL     1       5.621   5.590  -1.383  1.00  0.00     0.278 C 
ENDBRANCH   1   7
BRANCH   5   9
ATOM      9  C   UNL     1       2.676   0.216  -0.288  1.00  0.00     0.259 C 
ATOM     10  O   UNL     1       1.973  -0.573  -0.976  1.00  0.00    -0.269 OA
ATOM     11  N   UNL     1       3.413  -0.267   0.850  1.00  0.00    -0.306 N 
ATOM     12  H   UNL     1       3.885   0.438   1.461  1.00  0.00     0.171 HD
BRANCH  11  13
ATOM     13  C   UNL     1       3.496  -1.651   1.233  1.00  0.00     0.132 A 
ATOM     14  C   UNL     1       4.167  -2.009   2.412  1.00  0.00     0.049 A 
ATOM     15  N   UNL     1       2.937  -2.626   0.462  1.00  0.00    -0.238 NA
ATOM     16  C   UNL     1       4.244  -3.354   2.779  1.00  0.00     0.026 A 
ATOM     17  C   UNL     1       3.002  -3.941   0.800  1.00  0.00     0.134 A 
ATOM     18  C   UNL     1       3.658  -4.330   1.970  1.00  0.00     0.059 A 
ATOM     19  Cl  UNL     1       3.747  -6.024   2.418  1.00  0.00    -0.083 Cl
ENDBRANCH  11  13
ENDBRANCH   5   9
BRANCH   4  20
ATOM     20  N   UNL     1       0.288   1.734  -1.150  1.00  0.00    -0.321 N 
ATOM     21  C   UNL     1      -0.305   1.152   0.022  1.00  0.00     0.255 C 
ATOM     22  H   UNL     1      -0.324   1.923  -1.975  1.00  0.00     0.170 HD
ATOM     23  O   UNL     1       0.193   1.393   1.156  1.00  0.00    -0.269 OA
BRANCH  21  24
ATOM     24  C   UNL     1      -1.505   0.286  -0.080  1.00  0.00     0.040 A 
ATOM     25  C   UNL     1      -2.291   0.029   1.057  1.00  0.00     0.014 A 
ATOM     26  C   UNL     1      -1.859  -0.318  -1.300  1.00  0.00     0.014 A 
ATOM     27  C   UNL     1      -3.417  -0.794   0.972  1.00  0.00     0.013 A 
ATOM     28  C   UNL     1      -2.986  -1.141  -1.384  1.00  0.00     0.013 A 
ATOM     29  C   UNL     1      -3.780  -1.375  -0.251  1.00  0.00     0.016 A 
BRANCH  29  30
ATOM     30  C   UNL     1      -4.971  -2.253  -0.338  1.00  0.00     0.127 C 
ATOM     31  N   UNL     1      -4.862  -3.427  -0.882  1.00  0.00    -0.284 NA
ATOM     32  N   UNL     1      -6.251  -1.822   0.173  1.00  0.00    -0.363 N 
ATOM     33  H   UNL     1      -3.956  -3.788  -1.259  1.00  0.00     0.189 HD
ATOM     34  C   UNL     1      -6.574  -0.394   0.257  1.00  0.00     0.145 C 
ATOM     35  C   UNL     1      -7.269  -2.823   0.509  1.00  0.00     0.145 C 
ENDBRANCH  29  30
ENDBRANCH  21  24
ENDBRANCH   4  20
TORSDOF 6
