REMARK SMILES CCN1CCN(Cc2ccc(Nc3ncc(F)c(-c4cc(F)c5nc(C)n(C(C)C)c5c4)n3)nc2)CC1
REMARK SMILES IDX 8 1 9 2 10 3 11 4 34 5 35 6 7 7 6 8 3 9 4 10 37 11 5 12
REMARK SMILES IDX 36 13 2 14 1 15 12 16 13 18 14 19 33 20 15 21 18 22 16 23
REMARK SMILES IDX 17 24 19 25 20 26 32 27 21 28 31 29 22 30 23 31 27 32 24 33
REMARK SMILES IDX 25 34 26 35 28 36 29 37 30 38
REMARK H PARENT 12 17
REMARK Flexibility Score: inf
ROOT
ATOM      1  C   UNL     1       4.567   1.028  -1.846  1.00  0.00    -0.015 A 
ATOM      2  C   UNL     1       3.777  -0.052  -2.263  1.00  0.00     0.010 A 
ATOM      3  C   UNL     1       2.386   0.082  -2.332  1.00  0.00     0.047 A 
ATOM      4  C   UNL     1       1.789   1.293  -1.940  1.00  0.00     0.132 A 
ATOM      5  N   UNL     1       2.583   2.333  -1.562  1.00  0.00    -0.239 NA
ATOM      6  C   UNL     1       3.936   2.231  -1.504  1.00  0.00     0.118 A 
ENDROOT
BRANCH   1   7
ATOM      7  C   UNL     1       6.039   0.858  -1.611  1.00  0.00     0.121 C 
BRANCH   7   8
ATOM      8  N   UNL     1       6.236   0.419  -0.212  1.00  0.00    -0.296 NA
ATOM      9  N   UNL     1       8.343  -0.370   1.734  1.00  0.00    -0.301 NA
ATOM     10  C   UNL     1       8.157  -1.057   0.426  1.00  0.00     0.100 C 
ATOM     11  C   UNL     1       7.402   0.765   1.932  1.00  0.00     0.100 C 
ATOM     12  C   UNL     1       6.701  -0.983  -0.066  1.00  0.00     0.100 C 
ATOM     13  C   UNL     1       6.993   1.395   0.597  1.00  0.00     0.100 C 
BRANCH   9  14
ATOM     14  C   UNL     1       8.270  -1.332   2.856  1.00  0.00     0.081 C 
ATOM     15  C   UNL     1       8.695  -0.692   4.179  1.00  0.00     0.021 C 
ENDBRANCH   9  14
ENDBRANCH   7   8
ENDBRANCH   1   7
BRANCH   4  16
ATOM     16  N   UNL     1       0.366   1.487  -1.964  1.00  0.00    -0.309 N 
ATOM     17  H   UNL     1       0.024   2.471  -2.077  1.00  0.00     0.171 HD
BRANCH  16  18
ATOM     18  C   UNL     1      -0.607   0.502  -1.588  1.00  0.00     0.229 A 
ATOM     19  N   UNL     1      -0.239  -0.759  -1.232  1.00  0.00    -0.218 NA
ATOM     20  N   UNL     1      -1.921   0.847  -1.560  1.00  0.00    -0.210 NA
ATOM     21  C   UNL     1      -1.164  -1.685  -0.876  1.00  0.00     0.156 A 
ATOM     22  C   UNL     1      -2.892  -0.037  -1.197  1.00  0.00     0.112 A 
ATOM     23  C   UNL     1      -2.518  -1.352  -0.860  1.00  0.00     0.167 A 
ATOM     24  F   UNL     1      -3.432  -2.313  -0.586  1.00  0.00    -0.203 F 
BRANCH  22  25
ATOM     25  C   UNL     1      -4.307   0.417  -1.207  1.00  0.00     0.008 A 
ATOM     26  C   UNL     1      -4.710   1.411  -2.140  1.00  0.00     0.052 A 
ATOM     27  C   UNL     1      -5.255  -0.086  -0.279  1.00  0.00     0.039 A 
ATOM     28  C   UNL     1      -6.035   1.876  -2.171  1.00  0.00     0.151 A 
ATOM     29  C   UNL     1      -6.566   0.405  -0.338  1.00  0.00     0.072 A 
ATOM     30  F   UNL     1      -6.427   2.810  -3.073  1.00  0.00    -0.205 F 
ATOM     31  C   UNL     1      -6.935   1.341  -1.257  1.00  0.00     0.124 A 
ATOM     32  N   UNL     1      -7.645   0.052   0.396  1.00  0.00    -0.326 N 
ATOM     33  N   UNL     1      -8.247   1.604  -1.165  1.00  0.00    -0.230 NA
ATOM     34  C   UNL     1      -8.657   0.792  -0.158  1.00  0.00     0.107 A 
ATOM     35  C   UNL     1     -10.099   0.730   0.246  1.00  0.00     0.088 C 
BRANCH  32  36
ATOM     36  C   UNL     1      -7.694  -1.015   1.417  1.00  0.00     0.083 C 
ATOM     37  C   UNL     1      -8.586  -0.656   2.613  1.00  0.00     0.031 C 
ATOM     38  C   UNL     1      -8.109  -2.341   0.779  1.00  0.00     0.031 C 
ENDBRANCH  32  36
ENDBRANCH  22  25
ENDBRANCH  16  18
ENDBRANCH   4  16
TORSDOF 7
