REMARK SMILES COc1cc(Nc2ncc(F)c(Nc3ccc4c(n3)N(COP(=O)(O)O)C(=O)C(C)(C)O4)n2)cc(OC)c1OC
REMARK SMILES IDX 14 1 19 2 18 3 17 4 32 5 29 6 30 7 31 8 27 9 28 10 20 11
REMARK SMILES IDX 16 12 15 13 13 14 12 16 7 17 8 18 33 19 9 20 10 21 11 22
REMARK SMILES IDX 6 23 5 25 3 26 4 27 38 28 35 29 34 30 2 31 1 32 39 33 40 34
REMARK SMILES IDX 36 35 37 36 21 37 22 38 23 39 24 40 25 41 26 43
REMARK H PARENT 13 15 6 24 25 42 26 44
REMARK Flexibility Score: inf
ROOT
ATOM      1  C   UNL     1      -2.307  -0.113   0.508  1.00  0.00     0.134 A 
ATOM      2  N   UNL     1      -3.567  -0.503   0.171  1.00  0.00    -0.209 NA
ATOM      3  C   UNL     1      -4.675   0.153   0.618  1.00  0.00     0.182 A 
ATOM      4  C   UNL     1      -4.529   1.259   1.461  1.00  0.00     0.164 A 
ATOM      5  O   UNL     1      -5.656   1.948   1.915  1.00  0.00    -0.474 OA
ATOM      6  C   UNL     1      -6.933   1.870   1.270  1.00  0.00     0.182 C 
ATOM      7  C   UNL     1      -8.014   2.114   2.333  1.00  0.00     0.067 C 
ATOM      8  C   UNL     1      -7.001   2.963   0.194  1.00  0.00     0.067 C 
ATOM      9  C   UNL     1      -7.132   0.516   0.611  1.00  0.00     0.273 C 
ATOM     10  O   UNL     1      -8.297   0.145   0.295  1.00  0.00    -0.270 OA
ATOM     11  N   UNL     1      -5.994  -0.300   0.263  1.00  0.00    -0.265 N 
ATOM     12  C   UNL     1      -3.251   1.658   1.857  1.00  0.00     0.054 A 
ATOM     13  C   UNL     1      -2.132   0.974   1.382  1.00  0.00     0.051 A 
ENDROOT
BRANCH   1  14
ATOM     14  N   UNL     1      -1.188  -0.862   0.012  1.00  0.00    -0.322 N 
ATOM     15  H   UNL     1      -1.330  -1.880  -0.176  1.00  0.00     0.170 HD
BRANCH  14  16
ATOM     16  C   UNL     1       0.121  -0.317  -0.212  1.00  0.00     0.173 A 
ATOM     17  C   UNL     1       2.473  -0.637  -0.182  1.00  0.00     0.229 A 
ATOM     18  N   UNL     1       2.657   0.604  -0.710  1.00  0.00    -0.218 NA
ATOM     19  N   UNL     1       1.210  -1.090   0.043  1.00  0.00    -0.192 NA
ATOM     20  C   UNL     1       1.602   1.408  -0.997  1.00  0.00     0.158 A 
ATOM     21  C   UNL     1       0.303   0.963  -0.761  1.00  0.00     0.184 A 
ATOM     22  F   UNL     1      -0.750   1.743  -1.111  1.00  0.00    -0.201 F 
BRANCH  17  23
ATOM     23  N   UNL     1       3.591  -1.497   0.086  1.00  0.00    -0.324 N 
ATOM     24  H   UNL     1       3.391  -2.512   0.231  1.00  0.00     0.170 HD
BRANCH  23  25
ATOM     25  C   UNL     1       4.967  -1.080   0.029  1.00  0.00     0.049 A 
ATOM     26  C   UNL     1       7.287  -1.599  -0.501  1.00  0.00     0.166 A 
ATOM     27  C   UNL     1       5.934  -1.973  -0.439  1.00  0.00     0.076 A 
ATOM     28  C   UNL     1       7.683  -0.320  -0.076  1.00  0.00     0.203 A 
ATOM     29  C   UNL     1       6.713   0.584   0.430  1.00  0.00     0.166 A 
ATOM     30  C   UNL     1       5.364   0.183   0.488  1.00  0.00     0.076 A 
BRANCH  26  31
ATOM     31  O   UNL     1       8.275  -2.472  -0.985  1.00  0.00    -0.493 OA
ATOM     32  C   UNL     1       8.028  -3.788  -1.468  1.00  0.00     0.278 C 
ENDBRANCH  26  31
BRANCH  28  33
ATOM     33  O   UNL     1       9.054  -0.017  -0.181  1.00  0.00    -0.490 OA
ATOM     34  C   UNL     1       9.673   1.231   0.111  1.00  0.00     0.278 C 
ENDBRANCH  28  33
BRANCH  29  35
ATOM     35  O   UNL     1       7.105   1.858   0.871  1.00  0.00    -0.493 OA
ATOM     36  C   UNL     1       6.225   2.852   1.387  1.00  0.00     0.278 C 
ENDBRANCH  29  35
ENDBRANCH  23  25
ENDBRANCH  17  23
ENDBRANCH  14  16
ENDBRANCH   1  14
BRANCH  11  37
ATOM     37  C   UNL     1      -6.165  -1.514  -0.545  1.00  0.00     0.303 C 
BRANCH  37  38
ATOM     38  O   UNL     1      -5.985  -1.188  -1.903  1.00  0.00    -0.265 OA
BRANCH  38  39
ATOM     39  P   UNL     1      -6.320  -2.570  -2.846  1.00  0.00     0.471 P 
ATOM     40  O   UNL     1      -7.809  -2.846  -2.836  1.00  0.00    -0.228 OA
BRANCH  39  41
ATOM     41  O   UNL     1      -5.477  -3.920  -2.257  1.00  0.00    -0.303 OA
ATOM     42  H   UNL     1      -6.081  -4.332  -1.588  1.00  0.00     0.223 HD
ENDBRANCH  39  41
BRANCH  39  43
ATOM     43  O   UNL     1      -5.826  -2.271  -4.437  1.00  0.00    -0.303 OA
ATOM     44  H   UNL     1      -5.987  -3.125  -4.914  1.00  0.00     0.223 HD
ENDBRANCH  39  43
ENDBRANCH  38  39
ENDBRANCH  37  38
ENDBRANCH  11  37
TORSDOF 12
