REMARK SMILES Oc1cc2c(cc1O)[C@@H]1c3ccccc3CN[C@H]1CC2
REMARK SMILES IDX 2 1 7 2 6 3 5 4 9 5 18 6 19 7 20 8 4 9 3 10 17 11 16 12
REMARK SMILES IDX 15 13 14 14 13 15 12 16 11 17 10 18 1 20 8 22
REMARK H PARENT 17 19 1 21 8 23
REMARK Flexibility Score: inf
ROOT
ATOM      1  C   UNL     1       3.757  -0.194   1.064  1.00  0.00     0.157 A 
ATOM      2  C   UNL     1       3.272   0.971   0.464  1.00  0.00     0.157 A 
ATOM      3  C   UNL     1       1.983   0.989  -0.082  1.00  0.00     0.054 A 
ATOM      4  C   UNL     1       1.135  -0.131   0.018  1.00  0.00    -0.032 A 
ATOM      5  C   UNL     1      -0.248  -0.089  -0.634  1.00  0.00     0.067 C 
ATOM      6  C   UNL     1      -1.010  -1.427  -0.564  1.00  0.00     0.066 C 
ATOM      7  C   UNL     1      -0.066  -2.615  -0.763  1.00  0.00     0.024 C 
ATOM      8  C   UNL     1       0.936  -2.649   0.393  1.00  0.00     0.037 C 
ATOM      9  C   UNL     1       1.686  -1.345   0.504  1.00  0.00    -0.040 A 
ATOM     10  C   UNL     1       2.969  -1.350   1.073  1.00  0.00     0.054 A 
ATOM     11  N   UNL     1      -2.054  -1.393  -1.597  1.00  0.00    -0.309 NA
ATOM     12  C   UNL     1      -3.093  -0.389  -1.287  1.00  0.00     0.117 C 
ATOM     13  C   UNL     1      -2.574   0.869  -0.601  1.00  0.00    -0.030 A 
ATOM     14  C   UNL     1      -3.499   1.872  -0.273  1.00  0.00     0.005 A 
ATOM     15  C   UNL     1      -3.117   2.959   0.511  1.00  0.00     0.000 A 
ATOM     16  C   UNL     1      -1.816   3.040   1.003  1.00  0.00     0.000 A 
ATOM     17  C   UNL     1      -0.880   2.054   0.685  1.00  0.00     0.005 A 
ATOM     18  C   UNL     1      -1.230   0.976  -0.157  1.00  0.00    -0.034 A 
ATOM     19  H   UNL     1      -2.520  -2.329  -1.648  1.00  0.00     0.123 HD
ENDROOT
BRANCH   1  20
ATOM     20  O   UNL     1       5.032  -0.203   1.627  1.00  0.00    -0.504 OA
ATOM     21  H   UNL     1       5.412  -1.034   2.065  1.00  0.00     0.293 HD
ENDBRANCH   1  20
BRANCH   2  22
ATOM     22  O   UNL     1       4.078   2.106   0.409  1.00  0.00    -0.504 OA
ATOM     23  H   UNL     1       3.755   2.966  -0.019  1.00  0.00     0.293 HD
ENDBRANCH   2  22
TORSDOF 2
