REMARK SMILES CN(C)c1ccc([C@H]2C[C@]3(C)[C@@H](CC[C@]3(O)CCCO)[C@@H]3CCC4=CC(=O)CCC4=C32)cc1
REMARK SMILES IDX 17 1 15 2 8 3 9 4 31 5 10 6 21 7 30 8 11 9 12 10 22 11 24 12
REMARK SMILES IDX 29 13 13 14 14 15 23 16 25 17 28 18 26 19 27 20 7 21 4 22
REMARK SMILES IDX 5 23 33 24 6 25 32 26 2 27 1 28 3 29 16 30 18 32 19 33 20 34
REMARK H PARENT 16 31 20 35
REMARK Flexibility Score: inf
ROOT
ATOM      1  C   UNL     1       3.153   2.066   0.565  1.00  0.00     0.038 C 
ENDROOT
BRANCH   1   2
ATOM      2  C   UNL     1       3.563   1.041  -0.548  1.00  0.00     0.070 C 
ATOM      3  C   UNL     1      -0.197  -0.266  -1.105  1.00  0.00     0.046 C 
ATOM      4  C   UNL     1       0.950   0.721  -0.801  1.00  0.00     0.022 C 
ATOM      5  C   UNL     1       0.035  -1.624  -0.442  1.00  0.00    -0.056 C 
ATOM      6  C   UNL     1       2.366   0.120  -1.055  1.00  0.00     0.001 C 
ATOM      7  C   UNL     1       1.271  -1.763   0.450  1.00  0.00     0.020 C 
ATOM      8  C   UNL     1      -0.886  -2.625  -0.538  1.00  0.00    -0.044 C 
ATOM      9  C   UNL     1       2.515  -0.139  -2.586  1.00  0.00     0.015 C 
ATOM     10  C   UNL     1       2.535  -1.246  -0.304  1.00  0.00     0.005 C 
ATOM     11  C   UNL     1       1.514  -3.217   0.918  1.00  0.00     0.013 C 
ATOM     12  C   UNL     1      -0.833  -3.787   0.399  1.00  0.00    -0.041 C 
ATOM     13  C   UNL     1      -1.911  -2.685  -1.664  1.00  0.00     0.044 C 
ATOM     14  C   UNL     1       3.741  -1.087   0.622  1.00  0.00     0.008 C 
ATOM     15  C   UNL     1       4.574   0.014   0.003  1.00  0.00     0.036 C 
ATOM     16  C   UNL     1       0.238  -3.844   1.451  1.00  0.00     0.036 C 
ATOM     17  C   UNL     1      -1.816  -4.701   0.415  1.00  0.00     0.051 C 
ATOM     18  C   UNL     1      -3.236  -3.290  -1.193  1.00  0.00     0.085 C 
ATOM     19  C   UNL     1      -3.002  -4.564  -0.441  1.00  0.00     0.156 C 
ATOM     20  O   UNL     1      -3.871  -5.475  -0.459  1.00  0.00    -0.295 OA
BRANCH   3  21
ATOM     21  C   UNL     1      -1.503   0.371  -0.648  1.00  0.00    -0.041 A 
ATOM     22  C   UNL     1      -3.910   1.617   0.181  1.00  0.00     0.036 A 
ATOM     23  C   UNL     1      -3.490   1.677  -1.163  1.00  0.00     0.026 A 
ATOM     24  C   UNL     1      -3.093   0.939   1.107  1.00  0.00     0.026 A 
ATOM     25  C   UNL     1      -2.300   1.067  -1.569  1.00  0.00     0.006 A 
ATOM     26  C   UNL     1      -1.902   0.334   0.700  1.00  0.00     0.006 A 
BRANCH  22  27
ATOM     27  N   UNL     1      -5.148   2.241   0.603  1.00  0.00    -0.378 N 
ATOM     28  C   UNL     1      -5.880   1.725   1.766  1.00  0.00     0.143 C 
ATOM     29  C   UNL     1      -5.707   3.372  -0.148  1.00  0.00     0.143 C 
ENDBRANCH  22  27
ENDBRANCH   3  21
BRANCH   2  30
ATOM     30  O   UNL     1       4.118   1.762  -1.630  1.00  0.00    -0.389 OA
ATOM     31  H   UNL     1       5.063   1.980  -1.418  1.00  0.00     0.211 HD
ENDBRANCH   2  30
ENDBRANCH   1   2
BRANCH   1  32
ATOM     32  C   UNL     1       4.271   3.034   1.012  1.00  0.00     0.031 C 
BRANCH  32  33
ATOM     33  C   UNL     1       3.782   3.994   2.105  1.00  0.00     0.156 C 
BRANCH  33  34
ATOM     34  O   UNL     1       2.747   4.814   1.632  1.00  0.00    -0.396 OA
ATOM     35  H   UNL     1       3.165   5.471   1.016  1.00  0.00     0.210 HD
ENDBRANCH  33  34
ENDBRANCH  32  33
ENDBRANCH   1  32
TORSDOF 7
