REMARK SMILES CCN(c1cc(-c2ccc(CN3CCOCC3)cc2)cc(C(=O)NCc2c(C)cc(C)[nH]c2=O)c1C)C1CCOCC1
REMARK SMILES IDX 4 1 35 2 36 3 21 4 20 5 6 6 5 7 3 8 2 9 1 10 37 11 38 12
REMARK SMILES IDX 42 13 39 14 41 15 40 16 22 17 23 18 24 19 25 21 26 22 27 23
REMARK SMILES IDX 33 24 28 25 29 26 32 27 34 28 30 29 31 31 7 32 8 33 19 34
REMARK SMILES IDX 9 35 18 36 10 37 11 38 12 39 13 40 17 41 14 42 16 43 15 44
REMARK H PARENT 24 20 32 30
REMARK Flexibility Score: inf
ROOT
ATOM      1  C   UNL     1      -0.522  -1.392  -1.069  1.00  0.00     0.041 A 
ATOM      2  C   UNL     1      -1.459  -0.450  -0.584  1.00  0.00    -0.015 A 
ATOM      3  C   UNL     1      -2.881  -0.484  -1.092  1.00  0.00     0.047 C 
ATOM      4  C   UNL     1      -1.034   0.523   0.355  1.00  0.00     0.045 A 
ATOM      5  C   UNL     1       0.327   0.628   0.679  1.00  0.00     0.023 A 
ATOM      6  C   UNL     1       1.270  -0.250   0.123  1.00  0.00    -0.016 A 
ATOM      7  C   UNL     1       0.833  -1.263  -0.740  1.00  0.00     0.035 A 
ENDROOT
BRANCH   1   8
ATOM      8  N   UNL     1      -0.943  -2.492  -1.903  1.00  0.00    -0.368 N 
BRANCH   8   9
ATOM      9  C   UNL     1      -0.653  -2.370  -3.342  1.00  0.00     0.113 C 
ATOM     10  C   UNL     1      -1.783  -2.921  -4.210  1.00  0.00     0.027 C 
ENDBRANCH   8   9
BRANCH   8  11
ATOM     11  C   UNL     1      -1.213  -3.825  -1.306  1.00  0.00     0.086 C 
ATOM     12  C   UNL     1      -1.836  -3.750   0.107  1.00  0.00     0.053 C 
ATOM     13  C   UNL     1       0.061  -4.690  -1.257  1.00  0.00     0.053 C 
ATOM     14  C   UNL     1      -1.849  -5.133   0.795  1.00  0.00     0.162 C 
ATOM     15  C   UNL     1      -0.206  -6.046  -0.563  1.00  0.00     0.162 C 
ATOM     16  O   UNL     1      -1.542  -6.175  -0.112  1.00  0.00    -0.381 OA
ENDBRANCH   8  11
ENDBRANCH   1   8
BRANCH   4  17
ATOM     17  C   UNL     1      -1.988   1.422   1.041  1.00  0.00     0.251 C 
ATOM     18  O   UNL     1      -1.745   2.659   1.098  1.00  0.00    -0.269 OA
ATOM     19  N   UNL     1      -3.149   0.880   1.690  1.00  0.00    -0.348 N 
ATOM     20  H   UNL     1      -3.227  -0.156   1.796  1.00  0.00     0.164 HD
BRANCH  19  21
ATOM     21  C   UNL     1      -4.190   1.719   2.283  1.00  0.00     0.158 C 
BRANCH  21  22
ATOM     22  C   UNL     1      -5.041   2.359   1.202  1.00  0.00     0.039 A 
ATOM     23  C   UNL     1      -6.012   1.610   0.493  1.00  0.00    -0.039 A 
ATOM     24  C   UNL     1      -4.865   3.720   0.867  1.00  0.00     0.253 A 
ATOM     25  C   UNL     1      -6.296   0.165   0.819  1.00  0.00     0.045 C 
ATOM     26  C   UNL     1      -6.770   2.238  -0.505  1.00  0.00     0.025 A 
ATOM     27  N   UNL     1      -5.617   4.291  -0.113  1.00  0.00    -0.326 N 
ATOM     28  O   UNL     1      -4.014   4.426   1.476  1.00  0.00    -0.269 OA
ATOM     29  C   UNL     1      -6.566   3.590  -0.793  1.00  0.00     0.015 A 
ATOM     30  H   UNL     1      -5.458   5.299  -0.342  1.00  0.00     0.169 HD
ATOM     31  C   UNL     1      -7.363   4.250  -1.880  1.00  0.00     0.064 C 
ENDBRANCH  21  22
ENDBRANCH  19  21
ENDBRANCH   4  17
BRANCH   6  32
ATOM     32  C   UNL     1       2.707  -0.130   0.468  1.00  0.00    -0.018 A 
ATOM     33  C   UNL     1       3.106   0.076   1.799  1.00  0.00     0.009 A 
ATOM     34  C   UNL     1       3.689  -0.229  -0.532  1.00  0.00     0.009 A 
ATOM     35  C   UNL     1       4.461   0.186   2.122  1.00  0.00     0.006 A 
ATOM     36  C   UNL     1       5.043  -0.109  -0.208  1.00  0.00     0.006 A 
ATOM     37  C   UNL     1       5.440   0.108   1.120  1.00  0.00    -0.034 A 
BRANCH  37  38
ATOM     38  C   UNL     1       6.906   0.240   1.470  1.00  0.00     0.120 C 
BRANCH  38  39
ATOM     39  N   UNL     1       7.413   1.629   1.437  1.00  0.00    -0.295 NA
ATOM     40  C   UNL     1       6.746   2.519   2.403  1.00  0.00     0.113 C 
ATOM     41  C   UNL     1       7.396   2.223   0.089  1.00  0.00     0.113 C 
ATOM     42  C   UNL     1       7.417   3.896   2.362  1.00  0.00     0.175 C 
ATOM     43  C   UNL     1       8.038   3.614   0.147  1.00  0.00     0.175 C 
ATOM     44  O   UNL     1       7.347   4.447   1.060  1.00  0.00    -0.379 OA
ENDBRANCH  38  39
ENDBRANCH  37  38
ENDBRANCH   6  32
TORSDOF 9
