REMARK SMILES N[C@@H]1c2cccnc2[C@H](OC(=O)N2CCC(n3c(=O)[nH]c4ncccc43)CC2)CC[C@H]1c1cccc(F)c1F
REMARK SMILES IDX 8 1 3 2 4 3 5 4 6 5 7 6 2 7 1 8 31 11 32 13 38 14 33 15
REMARK SMILES IDX 39 16 36 17 34 18 37 19 35 20 9 21 29 22 30 23 10 25 11 26
REMARK SMILES IDX 12 27 13 28 14 29 28 30 15 31 27 32 16 33 17 34 18 35 26 36
REMARK SMILES IDX 19 37 20 38 21 39 25 40 22 42 24 43 23 44
REMARK H PARENT 1 9 1 10 20 41
REMARK Flexibility Score: 80.00
ROOT
ATOM      1  C   UNL     1      -1.551   0.447   0.391  1.00  0.00     0.086 A 
ATOM      2  C   UNL     1      -2.721   1.176   0.729  1.00  0.00    -0.005 A 
ATOM      3  C   UNL     1      -2.588   2.569   0.927  1.00  0.00     0.009 A 
ATOM      4  C   UNL     1      -1.346   3.192   0.809  1.00  0.00     0.020 A 
ATOM      5  C   UNL     1      -0.231   2.434   0.476  1.00  0.00     0.111 A 
ATOM      6  N   UNL     1      -0.360   1.102   0.269  1.00  0.00    -0.257 NA
ENDROOT
BRANCH   2   7
ATOM      7  C   UNL     1      -4.083   0.473   0.800  1.00  0.00     0.091 C 
BRANCH   7   8
ATOM      8  N   UNL     1      -5.120   1.313   1.418  1.00  0.00    -0.323 NA
ATOM      9  H   UNL     1      -4.795   1.651   2.353  1.00  0.00     0.119 HD
ATOM     10  H   UNL     1      -5.338   2.132   0.805  1.00  0.00     0.119 HD
ENDBRANCH   7   8
BRANCH   7  11
ATOM     11  C   UNL     1      -4.526  -0.016  -0.617  1.00  0.00     0.044 CG0
ATOM     12  G   UNL     1      -3.880  -1.369  -1.002  1.00  0.00     0.000 G0
BRANCH  11  13
ATOM     13  C   UNL     1      -6.041  -0.136  -0.757  1.00  0.00    -0.004 A 
ATOM     14  C   UNL     1      -6.803  -0.970   0.092  1.00  0.00     0.162 A 
ATOM     15  C   UNL     1      -6.701   0.585  -1.770  1.00  0.00     0.007 A 
ATOM     16  F   UNL     1      -6.211  -1.681   1.085  1.00  0.00    -0.203 F 
ATOM     17  C   UNL     1      -8.189  -1.066  -0.074  1.00  0.00     0.159 A 
ATOM     18  C   UNL     1      -8.085   0.482  -1.929  1.00  0.00     0.004 A 
ATOM     19  F   UNL     1      -8.919  -1.863   0.747  1.00  0.00    -0.204 F 
ATOM     20  C   UNL     1      -8.828  -0.341  -1.082  1.00  0.00     0.042 A 
ENDBRANCH  11  13
ENDBRANCH   7  11
ENDBRANCH   2   7
BRANCH   1  21
ATOM     21  C   UNL     1      -1.586  -1.038   0.091  1.00  0.00     0.227 C 
BRANCH  21  22
ATOM     22  C   UNL     1      -2.360  -1.302  -1.212  1.00  0.00     0.053 C 
BRANCH  22  23
ATOM     23  C   UNL     1      -3.880  -1.369  -1.002  1.00  0.00     0.014 CG0
ATOM     24  G   UNL     1      -4.526  -0.016  -0.617  1.00  0.00     0.000 G0
ENDBRANCH  22  23
ENDBRANCH  21  22
BRANCH  21  25
ATOM     25  O   UNL     1      -0.253  -1.531  -0.067  1.00  0.00    -0.440 OA
BRANCH  25  26
ATOM     26  C   UNL     1       0.628  -1.727   1.005  1.00  0.00     0.410 C 
ATOM     27  O   UNL     1       0.174  -1.855   2.176  1.00  0.00    -0.224 OA
ATOM     28  N   UNL     1       2.049  -1.744   0.776  1.00  0.00    -0.308 N 
ATOM     29  C   UNL     1       2.980  -1.803   1.918  1.00  0.00     0.125 C 
ATOM     30  C   UNL     1       2.593  -1.510  -0.569  1.00  0.00     0.125 C 
ATOM     31  C   UNL     1       4.342  -1.180   1.566  1.00  0.00     0.047 C 
ATOM     32  C   UNL     1       3.367  -0.184  -0.602  1.00  0.00     0.047 C 
ATOM     33  C   UNL     1       4.137   0.091   0.716  1.00  0.00     0.096 C 
BRANCH  33  34
ATOM     34  N   UNL     1       5.415   0.775   0.459  1.00  0.00    -0.287 N 
ATOM     35  C   UNL     1       5.773   2.018   0.889  1.00  0.00     0.327 A 
ATOM     36  C   UNL     1       6.492   0.363  -0.250  1.00  0.00     0.089 A 
ATOM     37  O   UNL     1       5.032   2.751   1.598  1.00  0.00    -0.248 OA
ATOM     38  N   UNL     1       7.006   2.400   0.482  1.00  0.00    -0.290 N 
ATOM     39  C   UNL     1       7.438   1.347  -0.228  1.00  0.00     0.158 A 
ATOM     40  C   UNL     1       6.715  -0.824  -0.951  1.00  0.00     0.032 A 
ATOM     41  H   UNL     1       7.504   3.299   0.677  1.00  0.00     0.173 HD
ATOM     42  N   UNL     1       8.630   1.233  -0.863  1.00  0.00    -0.237 NA
ATOM     43  C   UNL     1       7.949  -0.962  -1.612  1.00  0.00     0.022 A 
ATOM     44  C   UNL     1       8.901   0.082  -1.553  1.00  0.00     0.113 A 
ENDBRANCH  33  34
ENDBRANCH  25  26
ENDBRANCH  21  25
ENDBRANCH   1  21
TORSDOF 5
