REMARK SMILES COc1c(OCCCN2CCOCC2)ccc2c1N=C(NC(=O)c1cnc(N)nc1)N1CCN=C21
REMARK SMILES IDX 6 1 5 2 4 3 3 4 18 5 15 6 17 7 19 8 16 9 35 10 20 11 31 12
REMARK SMILES IDX 34 13 21 14 32 15 33 16 22 17 23 19 2 20 1 21 24 22 25 23
REMARK SMILES IDX 30 24 26 25 29 26 27 27 28 28 7 31 8 32 9 33 10 34 14 35
REMARK SMILES IDX 11 36 13 37 12 38
REMARK H PARENT 21 18 28 29 28 30
REMARK Flexibility Score: inf
ROOT
ATOM      1  C   UNL     1      -3.596  -1.954   0.471  1.00  0.00     0.231 C 
ENDROOT
BRANCH   1   2
ATOM      2  O   UNL     1      -2.344  -1.276   0.555  1.00  0.00    -0.490 OA
BRANCH   2   3
ATOM      3  C   UNL     1      -1.098  -1.836   0.238  1.00  0.00     0.163 A 
ATOM      4  C   UNL     1       0.083  -1.061   0.384  1.00  0.00     0.187 A 
ATOM      5  C   UNL     1       1.320  -1.611   0.012  1.00  0.00     0.124 A 
ATOM      6  C   UNL     1      -1.000  -3.160  -0.240  1.00  0.00     0.051 A 
ATOM      7  C   UNL     1       1.392  -2.933  -0.470  1.00  0.00     0.047 A 
ATOM      8  N   UNL     1       2.520  -0.812   0.126  1.00  0.00    -0.210 NA
ATOM      9  C   UNL     1       0.236  -3.705  -0.587  1.00  0.00     0.018 A 
ATOM     10  C   UNL     1       2.722  -3.432  -0.828  1.00  0.00     0.140 C 
ATOM     11  C   UNL     1       3.706  -1.252  -0.199  1.00  0.00     0.212 C 
ATOM     12  N   UNL     1       3.834  -2.587  -0.706  1.00  0.00    -0.294 N 
ATOM     13  N   UNL     1       3.001  -4.622  -1.235  1.00  0.00    -0.266 NA
ATOM     14  N   UNL     1       4.858  -0.399  -0.097  1.00  0.00    -0.292 N 
ATOM     15  C   UNL     1       5.017  -3.337  -1.074  1.00  0.00     0.151 C 
ATOM     16  C   UNL     1       4.446  -4.720  -1.455  1.00  0.00     0.166 C 
ATOM     17  C   UNL     1       4.845   0.877   0.567  1.00  0.00     0.261 C 
ATOM     18  H   UNL     1       5.754  -0.733  -0.517  1.00  0.00     0.173 HD
ATOM     19  O   UNL     1       3.981   1.113   1.454  1.00  0.00    -0.269 OA
BRANCH   4  20
ATOM     20  O   UNL     1       0.097   0.253   0.891  1.00  0.00    -0.491 OA
ATOM     21  C   UNL     1      -0.999   0.946   1.479  1.00  0.00     0.278 C 
ENDBRANCH   4  20
BRANCH  17  22
ATOM     22  C   UNL     1       5.870   1.901   0.261  1.00  0.00     0.077 A 
ATOM     23  C   UNL     1       6.582   1.890  -0.948  1.00  0.00     0.130 A 
ATOM     24  C   UNL     1       6.153   2.930   1.171  1.00  0.00     0.130 A 
ATOM     25  N   UNL     1       7.517   2.844  -1.198  1.00  0.00    -0.221 NA
ATOM     26  N   UNL     1       7.099   3.860   0.879  1.00  0.00    -0.221 NA
ATOM     27  C   UNL     1       7.785   3.818  -0.293  1.00  0.00     0.219 A 
BRANCH  27  28
ATOM     28  N   UNL     1       8.769   4.810  -0.579  1.00  0.00    -0.368 N 
ATOM     29  H   UNL     1       8.967   5.572   0.107  1.00  0.00     0.159 HD
ATOM     30  H   UNL     1       9.292   4.789  -1.483  1.00  0.00     0.159 HD
ENDBRANCH  27  28
ENDBRANCH  17  22
ENDBRANCH   2   3
ENDBRANCH   1   2
BRANCH   1  31
ATOM     31  C   UNL     1      -4.724  -1.000   0.866  1.00  0.00     0.057 C 
BRANCH  31  32
ATOM     32  C   UNL     1      -4.922   0.110  -0.179  1.00  0.00     0.088 C 
BRANCH  32  33
ATOM     33  N   UNL     1      -5.827   1.165   0.325  1.00  0.00    -0.299 NA
ATOM     34  C   UNL     1      -5.747   2.360  -0.536  1.00  0.00     0.113 C 
ATOM     35  C   UNL     1      -7.227   0.690   0.406  1.00  0.00     0.113 C 
ATOM     36  C   UNL     1      -6.649   3.482   0.021  1.00  0.00     0.175 C 
ATOM     37  C   UNL     1      -8.212   1.865   0.560  1.00  0.00     0.175 C 
ATOM     38  O   UNL     1      -7.541   3.019   1.020  1.00  0.00    -0.379 OA
ENDBRANCH  32  33
ENDBRANCH  31  32
ENDBRANCH   1  31
TORSDOF 8
