REMARK SMILES FC(F)(F)c1ccc(CNc2ccc(Cc3c[nH]c4ncc(Cl)cc34)cn2)cn1
REMARK SMILES IDX 10 1 9 3 8 4 5 5 6 6 29 7 7 8 28 9 2 10 1 11 3 12 4 13 11 14
REMARK SMILES IDX 27 15 12 16 26 17 13 18 14 19 15 20 16 21 17 22 25 23 18 24
REMARK SMILES IDX 19 25 24 26 20 28 22 29 21 30 23 31
REMARK H PARENT 10 2 18 27
REMARK Flexibility Score: inf
ROOT
ATOM      1  N   UNL     1       1.937  -0.361  -0.408  1.00  0.00    -0.366 N 
ATOM      2  H   UNL     1       2.235  -1.198   0.145  1.00  0.00     0.162 HD
ENDROOT
BRANCH   1   3
ATOM      3  C   UNL     1       2.906   0.704  -0.671  1.00  0.00     0.152 C 
BRANCH   3   4
ATOM      4  C   UNL     1       4.238   0.372  -0.054  1.00  0.00    -0.010 A 
ATOM      5  C   UNL     1       6.682  -0.335   1.086  1.00  0.00     0.144 A 
ATOM      6  C   UNL     1       5.747   0.386   1.842  1.00  0.00     0.034 A 
ATOM      7  N   UNL     1       6.378  -0.693  -0.192  1.00  0.00    -0.251 NA
ATOM      8  C   UNL     1       4.522   0.734   1.269  1.00  0.00     0.009 A 
ATOM      9  C   UNL     1       5.192  -0.365  -0.771  1.00  0.00     0.117 A 
BRANCH   5  10
ATOM     10  C   UNL     1       8.002  -0.724   1.684  1.00  0.00     0.433 C 
ATOM     11  F   UNL     1       7.792  -1.554   2.770  1.00  0.00    -0.165 F 
ATOM     12  F   UNL     1       8.677   0.409   2.100  1.00  0.00    -0.165 F 
ATOM     13  F   UNL     1       8.780  -1.391   0.753  1.00  0.00    -0.165 F 
ENDBRANCH   5  10
ENDBRANCH   3   4
ENDBRANCH   1   3
BRANCH   1  14
ATOM     14  C   UNL     1       0.577  -0.325  -0.872  1.00  0.00     0.126 A 
ATOM     15  N   UNL     1      -0.248  -1.365  -0.572  1.00  0.00    -0.239 NA
ATOM     16  C   UNL     1       0.075   0.754  -1.622  1.00  0.00     0.047 A 
ATOM     17  C   UNL     1      -1.546  -1.403  -0.975  1.00  0.00     0.117 A 
ATOM     18  C   UNL     1      -1.255   0.737  -2.045  1.00  0.00     0.009 A 
ATOM     19  C   UNL     1      -2.080  -0.351  -1.732  1.00  0.00    -0.025 A 
BRANCH  19  20
ATOM     20  C   UNL     1      -3.524  -0.359  -2.151  1.00  0.00     0.075 C 
BRANCH  20  21
ATOM     21  C   UNL     1      -4.352   0.405  -1.162  1.00  0.00    -0.016 A 
ATOM     22  C   UNL     1      -4.593   1.778  -1.168  1.00  0.00     0.089 A 
ATOM     23  C   UNL     1      -4.934  -0.070  -0.003  1.00  0.00     0.024 A 
ATOM     24  N   UNL     1      -5.306   2.140  -0.076  1.00  0.00    -0.346 N 
ATOM     25  C   UNL     1      -5.502   1.007   0.618  1.00  0.00     0.137 A 
ATOM     26  C   UNL     1      -5.000  -1.341   0.561  1.00  0.00     0.034 A 
ATOM     27  H   UNL     1      -5.621   3.101   0.181  1.00  0.00     0.167 HD
ATOM     28  N   UNL     1      -6.153   0.898   1.803  1.00  0.00    -0.237 NA
ATOM     29  C   UNL     1      -5.675  -1.470   1.788  1.00  0.00     0.060 A 
ATOM     30  C   UNL     1      -6.250  -0.329   2.397  1.00  0.00     0.134 A 
ATOM     31  Cl  UNL     1      -5.802  -3.039   2.560  1.00  0.00    -0.083 Cl
ENDBRANCH  20  21
ENDBRANCH  19  20
ENDBRANCH   1  14
TORSDOF 6
