REMARK SMILES CN(C)CCO/N=C(/C=C/c1ccc(O)cc1)c1ccccc1F
REMARK SMILES IDX 7 1 8 2 6 3 5 4 4 5 2 6 1 7 3 8 9 9 10 10 11 11 12 12 17 13
REMARK SMILES IDX 13 14 16 15 14 16 15 17 18 19 19 20 23 21 20 22 22 23 24 24
REMARK SMILES IDX 21 25
REMARK H PARENT 15 18
REMARK Flexibility Score: inf
ROOT
ATOM      1  N   UNL     1       0.193   0.817  -0.325  1.00  0.00    -0.086 NA
ATOM      2  C   UNL     1      -0.348  -0.309   0.039  1.00  0.00     0.113 C 
ENDROOT
BRANCH   1   3
ATOM      3  O   UNL     1       1.515   0.904  -0.702  1.00  0.00    -0.394 OA
BRANCH   3   4
ATOM      4  C   UNL     1       2.133   2.166  -0.897  1.00  0.00     0.279 C 
BRANCH   4   5
ATOM      5  C   UNL     1       3.504   1.989  -1.557  1.00  0.00     0.128 C 
BRANCH   5   6
ATOM      6  N   UNL     1       4.261   0.859  -0.975  1.00  0.00    -0.306 NA
ATOM      7  C   UNL     1       5.440   0.571  -1.807  1.00  0.00     0.105 C 
ATOM      8  C   UNL     1       4.692   1.148   0.406  1.00  0.00     0.105 C 
ENDBRANCH   5   6
ENDBRANCH   4   5
ENDBRANCH   3   4
ENDBRANCH   1   3
BRANCH   2   9
ATOM      9  C   UNL     1      -1.771  -0.353   0.431  1.00  0.00     0.033 C 
ATOM     10  C   UNL     1      -2.630   0.629   0.140  1.00  0.00     0.010 C 
BRANCH  10  11
ATOM     11  C   UNL     1      -4.038   0.607   0.585  1.00  0.00    -0.025 A 
ATOM     12  C   UNL     1      -4.394   0.138   1.865  1.00  0.00     0.012 A 
ATOM     13  C   UNL     1      -5.034   1.127  -0.258  1.00  0.00     0.012 A 
ATOM     14  C   UNL     1      -5.725   0.191   2.292  1.00  0.00     0.047 A 
ATOM     15  C   UNL     1      -6.365   1.167   0.169  1.00  0.00     0.047 A 
ATOM     16  C   UNL     1      -6.713   0.707   1.446  1.00  0.00     0.115 A 
BRANCH  16  17
ATOM     17  O   UNL     1      -8.041   0.770   1.866  1.00  0.00    -0.508 OA
ATOM     18  H   UNL     1      -8.324   0.447   2.786  1.00  0.00     0.293 HD
ENDBRANCH  16  17
ENDBRANCH  10  11
ENDBRANCH   2   9
BRANCH   2  19
ATOM     19  C   UNL     1       0.471  -1.528   0.167  1.00  0.00     0.039 A 
ATOM     20  C   UNL     1       1.564  -1.543   1.047  1.00  0.00     0.013 A 
ATOM     21  C   UNL     1       0.159  -2.685  -0.566  1.00  0.00     0.132 A 
ATOM     22  C   UNL     1       2.323  -2.710   1.210  1.00  0.00     0.001 A 
ATOM     23  C   UNL     1       0.929  -3.843  -0.413  1.00  0.00     0.040 A 
ATOM     24  F   UNL     1      -0.880  -2.690  -1.440  1.00  0.00    -0.206 F 
ATOM     25  C   UNL     1       2.002  -3.859   0.482  1.00  0.00     0.003 A 
ENDBRANCH   2  19
TORSDOF 8
