REMARK SMILES O=C1Nc2ccccc2/C1=C1\Nc2ccccc2C1=O
REMARK SMILES IDX 1 1 2 2 3 3 4 4 9 5 8 6 7 7 6 8 5 9 10 10 11 11 12 12 13 13
REMARK SMILES IDX 18 14 17 15 16 16 15 17 14 18 19 19 20 20
REMARK H PARENT 3 21 12 22
REMARK Flexibility Score: inf
ROOT
ATOM      1  O   UNL     1      -0.804   3.328   0.474  1.00  0.00    -0.269 OA
ATOM      2  C   UNL     1      -1.453   2.258   0.343  1.00  0.00     0.258 C 
ATOM      3  N   UNL     1      -2.868   2.199   0.478  1.00  0.00    -0.321 N 
ATOM      4  C   UNL     1      -3.195   0.828   0.308  1.00  0.00     0.049 A 
ATOM      5  C   UNL     1      -2.076   0.043   0.079  1.00  0.00     0.013 A 
ATOM      6  C   UNL     1      -2.221  -1.301  -0.291  1.00  0.00     0.011 A 
ATOM      7  C   UNL     1      -3.511  -1.856  -0.322  1.00  0.00     0.001 A 
ATOM      8  C   UNL     1      -4.637  -1.063  -0.033  1.00  0.00     0.002 A 
ATOM      9  C   UNL     1      -4.484   0.299   0.267  1.00  0.00     0.027 A 
ATOM     10  C   UNL     1      -0.883   0.915   0.118  1.00  0.00     0.077 C 
ATOM     11  C   UNL     1       0.418   0.560   0.072  1.00  0.00     0.101 C 
ATOM     12  N   UNL     1       0.896  -0.785   0.229  1.00  0.00    -0.351 N 
ATOM     13  C   UNL     1       2.319  -0.699   0.197  1.00  0.00     0.050 A 
ATOM     14  C   UNL     1       2.759   0.594   0.023  1.00  0.00     0.048 A 
ATOM     15  C   UNL     1       4.116   0.908  -0.023  1.00  0.00     0.014 A 
ATOM     16  C   UNL     1       5.041  -0.141   0.120  1.00  0.00     0.001 A 
ATOM     17  C   UNL     1       4.594  -1.466   0.309  1.00  0.00     0.002 A 
ATOM     18  C   UNL     1       3.218  -1.753   0.353  1.00  0.00     0.027 A 
ATOM     19  C   UNL     1       1.589   1.446  -0.063  1.00  0.00     0.212 C 
ATOM     20  O   UNL     1       1.599   2.682  -0.299  1.00  0.00    -0.287 OA
ATOM     21  H   UNL     1      -3.524   2.995   0.638  1.00  0.00     0.170 HD
ATOM     22  H   UNL     1       0.375  -1.589   0.638  1.00  0.00     0.167 HD
ENDROOT
TORSDOF 0
