REMARK SMILES Cc1nc2sccn2c(=O)c1CCN1CCC(=C(c2ccc(F)cc2)c2ccc(F)cc2)CC1
REMARK SMILES IDX 13 1 12 2 11 3 1 4 2 5 3 6 9 7 4 8 10 9 8 10 5 11 7 12 6 13
REMARK SMILES IDX 14 14 15 15 34 16 16 17 33 18 17 19 18 20 19 21 20 22 25 23
REMARK SMILES IDX 21 24 24 25 22 26 23 27 26 28 27 29 32 30 28 31 31 32 29 33
REMARK SMILES IDX 30 34
REMARK H PARENT
REMARK Flexibility Score: inf
ROOT
ATOM      1  C   UNL     1       2.172  -0.332   0.632  1.00  0.00     0.089 C 
ENDROOT
BRANCH   1   2
ATOM      2  C   UNL     1       3.134  -0.403  -0.574  1.00  0.00     0.059 C 
BRANCH   2   3
ATOM      3  C   UNL     1       4.573  -0.291  -0.112  1.00  0.00     0.040 A 
ATOM      4  C   UNL     1       4.836  -2.834   0.016  1.00  0.00     0.067 C 
ATOM      5  C   UNL     1       5.360  -1.438   0.190  1.00  0.00     0.049 A 
ATOM      6  N   UNL     1       6.641  -1.285   0.628  1.00  0.00    -0.225 NA
ATOM      7  C   UNL     1       5.153   0.983   0.088  1.00  0.00     0.261 A 
ATOM      8  C   UNL     1       7.157  -0.046   0.792  1.00  0.00     0.196 A 
ATOM      9  O   UNL     1       4.491   2.034  -0.139  1.00  0.00    -0.269 OA
ATOM     10  N   UNL     1       6.437   1.064   0.533  1.00  0.00    -0.258 N 
ATOM     11  S   UNL     1       8.705   0.313   1.327  1.00  0.00    -0.105 S 
ATOM     12  C   UNL     1       7.145   2.204   0.771  1.00  0.00     0.108 A 
ATOM     13  C   UNL     1       8.445   1.982   1.224  1.00  0.00     0.087 A 
ENDBRANCH   2   3
ENDBRANCH   1   2
BRANCH   1  14
ATOM     14  N   UNL     1       0.742  -0.275   0.259  1.00  0.00    -0.302 NA
ATOM     15  C   UNL     1       0.306   1.073  -0.183  1.00  0.00     0.089 C 
ATOM     16  C   UNL     1       0.315  -1.368  -0.635  1.00  0.00     0.089 C 
ATOM     17  C   UNL     1      -0.940   1.048  -1.089  1.00  0.00     0.047 C 
ATOM     18  C   UNL     1      -1.214  -1.469  -0.617  1.00  0.00     0.047 C 
ATOM     19  C   UNL     1      -1.859  -0.100  -0.718  1.00  0.00    -0.059 C 
ATOM     20  C   UNL     1      -3.190   0.066  -0.495  1.00  0.00    -0.012 C 
BRANCH  20  21
ATOM     21  C   UNL     1      -4.085  -1.092  -0.265  1.00  0.00    -0.018 A 
ATOM     22  C   UNL     1      -4.337  -2.015  -1.294  1.00  0.00     0.012 A 
ATOM     23  C   UNL     1      -4.730  -1.246   0.972  1.00  0.00     0.012 A 
ATOM     24  C   UNL     1      -5.201  -3.092  -1.076  1.00  0.00     0.040 A 
ATOM     25  C   UNL     1      -5.594  -2.324   1.186  1.00  0.00     0.040 A 
ATOM     26  C   UNL     1      -5.827  -3.249   0.164  1.00  0.00     0.123 A 
ATOM     27  F   UNL     1      -6.666  -4.293   0.372  1.00  0.00    -0.207 F 
ENDBRANCH  20  21
BRANCH  20  28
ATOM     28  C   UNL     1      -3.817   1.404  -0.414  1.00  0.00    -0.018 A 
ATOM     29  C   UNL     1      -3.469   2.293   0.617  1.00  0.00     0.012 A 
ATOM     30  C   UNL     1      -4.816   1.768  -1.331  1.00  0.00     0.012 A 
ATOM     31  C   UNL     1      -4.091   3.541   0.709  1.00  0.00     0.040 A 
ATOM     32  C   UNL     1      -5.437   3.017  -1.235  1.00  0.00     0.040 A 
ATOM     33  C   UNL     1      -5.073   3.905  -0.218  1.00  0.00     0.123 A 
ATOM     34  F   UNL     1      -5.677   5.115  -0.126  1.00  0.00    -0.207 F 
ENDBRANCH  20  28
ENDBRANCH   1  14
TORSDOF 5
