REMARK SMILES Clc1cccc(N2CCNCC2)c1
REMARK SMILES IDX 7 1 8 2 9 3 10 4 11 5 12 6 6 8 1 9 2 10 13 11 3 12 4 13 5 14
REMARK H PARENT 10 7
REMARK Flexibility Score: inf
ROOT
ATOM      1  N   UNL     1      -0.476  -0.294  -0.132  1.00  0.00    -0.369 N 
ATOM      2  C   UNL     1      -1.254  -0.893   0.960  1.00  0.00     0.132 C 
ATOM      3  C   UNL     1      -2.732  -0.491   0.856  1.00  0.00     0.102 C 
ATOM      4  N   UNL     1      -2.854   0.917   0.456  1.00  0.00    -0.313 NA
ATOM      5  C   UNL     1      -2.318   1.171  -0.897  1.00  0.00     0.102 C 
ATOM      6  C   UNL     1      -1.189   0.205  -1.313  1.00  0.00     0.132 C 
ATOM      7  H   UNL     1      -2.326   1.504   1.144  1.00  0.00     0.122 HD
ENDROOT
BRANCH   1   8
ATOM      8  C   UNL     1       0.962  -0.234  -0.050  1.00  0.00     0.038 A 
ATOM      9  Cl  UNL     1       3.882   2.492  -0.709  1.00  0.00    -0.084 Cl
ATOM     10  C   UNL     1       3.040   1.011  -0.292  1.00  0.00     0.043 A 
ATOM     11  C   UNL     1       1.645   0.949  -0.384  1.00  0.00     0.046 A 
ATOM     12  C   UNL     1       3.763  -0.106   0.139  1.00  0.00     0.020 A 
ATOM     13  C   UNL     1       3.092  -1.282   0.482  1.00  0.00     0.004 A 
ATOM     14  C   UNL     1       1.698  -1.347   0.392  1.00  0.00     0.026 A 
ENDBRANCH   1   8
TORSDOF 1
