REMARK SMILES NC(=O)c1ccc2c(c1O)[C@]13CCN(CC4CC4)[C@H](C2)[C@]1(O)CCC(=O)C3
REMARK SMILES IDX 4 1 5 2 6 3 7 4 20 5 19 6 14 7 13 8 12 9 11 10 27 11 25 12
REMARK SMILES IDX 26 13 24 14 23 15 21 16 8 17 9 18 2 19 1 20 3 23 10 24 22 26
REMARK SMILES IDX 15 28 16 29 17 30 18 31
REMARK H PARENT 1 21 1 22 10 25 22 27
REMARK Flexibility Score: inf
ROOT
ATOM      1  C   UNL     1       3.761   0.621  -0.235  1.00  0.00     0.081 A 
ATOM      2  C   UNL     1       3.531   1.194   1.016  1.00  0.00     0.018 A 
ATOM      3  C   UNL     1       2.258   1.196   1.565  1.00  0.00     0.005 A 
ATOM      4  C   UNL     1       1.191   0.578   0.905  1.00  0.00    -0.039 A 
ATOM      5  C   UNL     1      -0.172   0.716   1.548  1.00  0.00     0.058 C 
ATOM      6  C   UNL     1      -1.336   0.070   0.758  1.00  0.00     0.093 C 
ATOM      7  N   UNL     1      -1.950   0.961  -0.270  1.00  0.00    -0.297 NA
ATOM      8  C   UNL     1      -1.010   1.350  -1.341  1.00  0.00     0.086 C 
ATOM      9  C   UNL     1      -0.399   0.110  -2.017  1.00  0.00     0.031 C 
ATOM     10  C   UNL     1       0.216  -0.871  -0.984  1.00  0.00     0.038 C 
ATOM     11  C   UNL     1       0.599  -2.203  -1.709  1.00  0.00     0.090 C 
ATOM     12  C   UNL     1       1.061  -3.230  -0.718  1.00  0.00     0.134 C 
ATOM     13  O   UNL     1       2.118  -3.821  -0.878  1.00  0.00    -0.300 OA
ATOM     14  C   UNL     1       0.154  -3.572   0.428  1.00  0.00     0.078 C 
ATOM     15  C   UNL     1      -0.342  -2.289   1.108  1.00  0.00     0.046 C 
ATOM     16  C   UNL     1      -0.886  -1.242   0.076  1.00  0.00     0.091 C 
ATOM     17  C   UNL     1       1.415  -0.146  -0.302  1.00  0.00     0.008 A 
ATOM     18  C   UNL     1       2.701  -0.033  -0.914  1.00  0.00     0.132 A 
ENDROOT
BRANCH   1  19
ATOM     19  C   UNL     1       5.106   0.778  -0.828  1.00  0.00     0.252 C 
ATOM     20  N   UNL     1       6.273   0.476  -0.062  1.00  0.00    -0.365 N 
ATOM     21  H   UNL     1       6.195   0.090   0.906  1.00  0.00     0.159 HD
ATOM     22  H   UNL     1       7.223   0.613  -0.472  1.00  0.00     0.159 HD
ATOM     23  O   UNL     1       5.234   1.225  -2.000  1.00  0.00    -0.269 OA
ENDBRANCH   1  19
BRANCH  18  24
ATOM     24  O   UNL     1       2.913  -0.555  -2.189  1.00  0.00    -0.507 OA
ATOM     25  H   UNL     1       3.821  -0.628  -2.629  1.00  0.00     0.293 HD
ENDBRANCH  18  24
BRANCH  16  26
ATOM     26  O   UNL     1      -2.001  -1.805  -0.589  1.00  0.00    -0.387 OA
ATOM     27  H   UNL     1      -2.695  -2.014   0.090  1.00  0.00     0.211 HD
ENDBRANCH  16  26
BRANCH   7  28
ATOM     28  C   UNL     1      -2.679   2.138   0.257  1.00  0.00     0.088 C 
BRANCH  28  29
ATOM     29  C   UNL     1      -3.805   1.730   1.225  1.00  0.00     0.003 C 
ATOM     30  C   UNL     1      -5.163   2.382   0.993  1.00  0.00     0.005 C 
ATOM     31  C   UNL     1      -4.936   0.932   0.591  1.00  0.00     0.005 C 
ENDBRANCH  28  29
ENDBRANCH   7  28
TORSDOF 5
