REMARK SMILES CCCn1c(=O)c2[nH]c(C34C[C@@H]5CC3C[C@@H](C5)C4)nc2n(CCC)c1=O
REMARK SMILES IDX 21 1 20 2 7 3 8 4 9 5 19 6 5 7 6 8 4 9 25 10 26 11 22 13
REMARK SMILES IDX 23 14 24 15 3 16 2 17 1 18 10 19 11 20 14 21 18 22 12 23
REMARK SMILES IDX 13 24 15 25 16 26 17 27
REMARK H PARENT 8 12
REMARK Flexibility Score: inf
ROOT
ATOM      1  N   UNL     1      -1.959  -0.787  -1.179  1.00  0.00    -0.276 N 
ATOM      2  C   UNL     1      -0.832  -0.130  -0.793  1.00  0.00     0.168 A 
ATOM      3  C   UNL     1      -0.862   1.127  -0.303  1.00  0.00     0.150 A 
ATOM      4  N   UNL     1       0.374   1.502   0.050  1.00  0.00    -0.336 N 
ATOM      5  C   UNL     1       1.138   0.423  -0.263  1.00  0.00     0.115 A 
ATOM      6  N   UNL     1       0.423  -0.617  -0.769  1.00  0.00    -0.214 NA
ATOM      7  C   UNL     1      -2.058   1.810  -0.182  1.00  0.00     0.282 A 
ATOM      8  O   UNL     1      -2.077   2.976   0.300  1.00  0.00    -0.267 OA
ATOM      9  N   UNL     1      -3.213   1.181  -0.591  1.00  0.00    -0.258 N 
ATOM     10  C   UNL     1      -3.162  -0.120  -1.071  1.00  0.00     0.332 A 
ATOM     11  O   UNL     1      -4.230  -0.706  -1.408  1.00  0.00    -0.247 OA
ATOM     12  H   UNL     1       0.671   2.399   0.494  1.00  0.00     0.168 HD
ENDROOT
BRANCH   1  13
ATOM     13  C   UNL     1      -1.892  -2.180  -1.658  1.00  0.00     0.129 C 
BRANCH  13  14
ATOM     14  C   UNL     1      -2.254  -3.174  -0.544  1.00  0.00     0.019 C 
ATOM     15  C   UNL     1      -1.232  -3.175   0.592  1.00  0.00     0.006 C 
ENDBRANCH  13  14
ENDBRANCH   1  13
BRANCH   9  16
ATOM     16  C   UNL     1      -4.511   1.869  -0.456  1.00  0.00     0.131 C 
BRANCH  16  17
ATOM     17  C   UNL     1      -5.128   1.574   0.915  1.00  0.00     0.019 C 
ATOM     18  C   UNL     1      -6.473   2.274   1.079  1.00  0.00     0.006 C 
ENDBRANCH  16  17
ENDBRANCH   9  16
BRANCH   5  19
ATOM     19  C   UNL     1       2.607   0.326   0.064  1.00  0.00     0.032 C 
ATOM     20  C   UNL     1       3.368   1.655  -0.108  1.00  0.00     0.019 C 
ATOM     21  C   UNL     1       3.414  -0.700  -0.813  1.00  0.00     0.003 C 
ATOM     22  C   UNL     1       2.852  -0.128   1.515  1.00  0.00     0.019 C 
ATOM     23  C   UNL     1       4.794   1.151  -0.303  1.00  0.00    -0.010 C 
ATOM     24  C   UNL     1       4.568   0.123  -1.405  1.00  0.00     0.008 C 
ATOM     25  C   UNL     1       4.050  -1.655   0.208  1.00  0.00     0.008 C 
ATOM     26  C   UNL     1       4.249  -0.725   1.400  1.00  0.00    -0.010 C 
ATOM     27  C   UNL     1       5.268   0.412   1.006  1.00  0.00     0.007 C 
ENDBRANCH   5  19
TORSDOF 5
