REMARK SMILES O=C(O)CNC(=O)c1ncc(-c2cccc(Cl)c2)cc1O
REMARK SMILES IDX 5 1 6 2 7 3 4 5 2 6 1 7 3 8 8 10 20 11 9 12 19 13 10 14
REMARK SMILES IDX 11 15 21 16 12 18 18 19 13 20 16 21 14 22 17 23 15 24
REMARK H PARENT 5 4 3 9 21 17
REMARK Flexibility Score: inf
ROOT
ATOM      1  N   UNL     1       3.579   0.555   0.455  1.00  0.00    -0.340 N 
ATOM      2  C   UNL     1       2.780  -0.048  -0.576  1.00  0.00     0.274 C 
ATOM      3  O   UNL     1       3.341  -0.633  -1.541  1.00  0.00    -0.267 OA
ATOM      4  H   UNL     1       3.130   0.853   1.350  1.00  0.00     0.164 HD
ENDROOT
BRANCH   1   5
ATOM      5  C   UNL     1       5.030   0.681   0.344  1.00  0.00     0.238 C 
BRANCH   5   6
ATOM      6  C   UNL     1       5.682  -0.640   0.599  1.00  0.00     0.322 C 
ATOM      7  O   UNL     1       6.209  -1.280  -0.349  1.00  0.00    -0.250 OA
BRANCH   6   8
ATOM      8  O   UNL     1       5.686  -1.172   1.885  1.00  0.00    -0.480 OA
ATOM      9  H   UNL     1       6.115  -2.070   2.074  1.00  0.00     0.296 HD
ENDBRANCH   6   8
ENDBRANCH   5   6
ENDBRANCH   1   5
BRANCH   2  10
ATOM     10  C   UNL     1       1.305  -0.043  -0.505  1.00  0.00     0.169 A 
ATOM     11  C   UNL     1       0.580   1.041   0.027  1.00  0.00     0.147 A 
ATOM     12  N   UNL     1       0.630  -1.114  -1.003  1.00  0.00    -0.247 NA
ATOM     13  C   UNL     1      -0.818   0.969   0.071  1.00  0.00     0.059 A 
ATOM     14  C   UNL     1      -0.726  -1.198  -0.977  1.00  0.00     0.121 A 
ATOM     15  C   UNL     1      -1.490  -0.156  -0.430  1.00  0.00     0.004 A 
BRANCH  11  16
ATOM     16  O   UNL     1       1.232   2.188   0.479  1.00  0.00    -0.505 OA
ATOM     17  H   UNL     1       0.720   2.977   0.854  1.00  0.00     0.293 HD
ENDBRANCH  11  16
BRANCH  15  18
ATOM     18  C   UNL     1      -2.973  -0.239  -0.393  1.00  0.00    -0.015 A 
ATOM     19  C   UNL     1      -3.761   0.893  -0.676  1.00  0.00     0.029 A 
ATOM     20  C   UNL     1      -3.614  -1.451  -0.075  1.00  0.00     0.009 A 
ATOM     21  C   UNL     1      -5.157   0.813  -0.640  1.00  0.00     0.041 A 
ATOM     22  C   UNL     1      -5.009  -1.527  -0.039  1.00  0.00     0.002 A 
ATOM     23  Cl  UNL     1      -6.128   2.229  -1.001  1.00  0.00    -0.084 Cl
ATOM     24  C   UNL     1      -5.780  -0.397  -0.321  1.00  0.00     0.020 A 
ENDBRANCH  15  18
ENDBRANCH   2  10
TORSDOF 6
