REMARK SMILES CN(C)Cc1c(C(=O)NCCOc2ccc(C(=O)NO)cc2)oc2ccccc12
REMARK SMILES IDX 10 1 9 2 7 3 8 4 6 6 5 7 29 8 23 9 24 10 28 11 25 12 27 13
REMARK SMILES IDX 26 14 4 15 2 16 1 17 3 18 11 19 12 20 13 21 14 22 22 23
REMARK SMILES IDX 15 24 21 25 16 26 17 27 18 28 19 29 20 31
REMARK H PARENT 9 5 19 30 20 32
REMARK Flexibility Score: inf
ROOT
ATOM      1  C   UNL     1       0.805  -3.030  -1.993  1.00  0.00     0.157 C 
ENDROOT
BRANCH   1   2
ATOM      2  N   UNL     1      -0.275  -2.799  -1.034  1.00  0.00    -0.346 N 
ATOM      3  C   UNL     1      -1.285  -1.799  -1.235  1.00  0.00     0.287 C 
ATOM      4  O   UNL     1      -1.317  -1.145  -2.312  1.00  0.00    -0.266 OA
ATOM      5  H   UNL     1      -0.318  -3.406  -0.185  1.00  0.00     0.164 HD
BRANCH   3   6
ATOM      6  C   UNL     1      -2.282  -1.538  -0.179  1.00  0.00     0.197 A 
ATOM      7  C   UNL     1      -3.293  -0.569  -0.188  1.00  0.00     0.026 A 
ATOM      8  C   UNL     1      -3.929  -0.713   1.029  1.00  0.00     0.026 A 
ATOM      9  O   UNL     1      -2.320  -2.220   0.953  1.00  0.00    -0.451 OA
ATOM     10  C   UNL     1      -3.296  -1.738   1.682  1.00  0.00     0.135 A 
ATOM     11  C   UNL     1      -4.993  -0.019   1.610  1.00  0.00     0.012 A 
ATOM     12  C   UNL     1      -3.687  -2.151   2.953  1.00  0.00     0.048 A 
ATOM     13  C   UNL     1      -5.409  -0.414   2.895  1.00  0.00     0.001 A 
ATOM     14  C   UNL     1      -4.760  -1.476   3.563  1.00  0.00     0.004 A 
BRANCH   7  15
ATOM     15  C   UNL     1      -3.580   0.464  -1.245  1.00  0.00     0.124 C 
BRANCH  15  16
ATOM     16  N   UNL     1      -2.502   1.472  -1.291  1.00  0.00    -0.305 NA
ATOM     17  C   UNL     1      -2.599   2.397  -0.148  1.00  0.00     0.105 C 
ATOM     18  C   UNL     1      -2.578   2.234  -2.548  1.00  0.00     0.105 C 
ENDBRANCH  15  16
ENDBRANCH   7  15
ENDBRANCH   3   6
ENDBRANCH   1   2
BRANCH   1  19
ATOM     19  C   UNL     1       1.818  -1.889  -1.955  1.00  0.00     0.250 C 
BRANCH  19  20
ATOM     20  O   UNL     1       2.340  -1.752  -0.635  1.00  0.00    -0.492 OA
BRANCH  20  21
ATOM     21  C   UNL     1       3.267  -0.774  -0.246  1.00  0.00     0.119 A 
ATOM     22  C   UNL     1       3.798   0.165  -1.148  1.00  0.00     0.047 A 
ATOM     23  C   UNL     1       3.675  -0.740   1.091  1.00  0.00     0.047 A 
ATOM     24  C   UNL     1       4.716   1.123  -0.709  1.00  0.00     0.018 A 
ATOM     25  C   UNL     1       4.593   0.217   1.532  1.00  0.00     0.018 A 
ATOM     26  C   UNL     1       5.117   1.168   0.638  1.00  0.00     0.042 A 
BRANCH  26  27
ATOM     27  C   UNL     1       6.096   2.188   1.086  1.00  0.00     0.274 C 
ATOM     28  O   UNL     1       6.866   2.723   0.243  1.00  0.00    -0.267 OA
ATOM     29  N   UNL     1       6.176   2.595   2.458  1.00  0.00    -0.234 N 
ATOM     30  H   UNL     1       5.450   2.302   3.148  1.00  0.00     0.199 HD
BRANCH  29  31
ATOM     31  O   UNL     1       7.146   3.449   2.862  1.00  0.00    -0.288 OA
ATOM     32  H   UNL     1       7.884   2.866   3.174  1.00  0.00     0.246 HD
ENDBRANCH  29  31
ENDBRANCH  26  27
ENDBRANCH  20  21
ENDBRANCH  19  20
ENDBRANCH   1  19
TORSDOF 9
