REMARK SMILES O=C(O[C@@H]1Cc2c(O)cc(O)cc2O[C@@H]1c1cc(O)c(O)c(O)c1)c1cc(O)c(O)c(O)c1
REMARK SMILES IDX 3 1 4 2 10 3 9 4 12 5 7 6 13 7 6 8 14 9 5 10 15 11 11 12
REMARK SMILES IDX 8 14 16 16 17 17 24 18 18 19 22 20 20 21 19 22 23 24 21 26
REMARK SMILES IDX 2 28 1 29 25 30 26 31 33 32 27 33 31 34 29 35 28 36 32 38
REMARK SMILES IDX 30 40
REMARK H PARENT 11 13 8 15 19 23 23 25 21 27 28 37 32 39 30 41
REMARK Flexibility Score: inf
ROOT
ATOM      1  O   UNL     1       1.102  -0.369  -0.858  1.00  0.00    -0.454 OA
ENDROOT
BRANCH   1   2
ATOM      2  C   UNL     1       0.086   0.442  -1.449  1.00  0.00     0.227 C 
ATOM      3  C   UNL     1      -3.606   3.915  -2.070  1.00  0.00     0.122 A 
ATOM      4  C   UNL     1      -2.651   4.574  -1.288  1.00  0.00     0.092 A 
ATOM      5  C   UNL     1      -3.438   2.563  -2.376  1.00  0.00     0.093 A 
ATOM      6  C   UNL     1      -1.521   3.894  -0.817  1.00  0.00     0.126 A 
ATOM      7  C   UNL     1      -2.320   1.867  -1.911  1.00  0.00     0.131 A 
ATOM      8  C   UNL     1      -1.330   2.533  -1.155  1.00  0.00     0.040 A 
ATOM      9  O   UNL     1      -2.192   0.507  -2.213  1.00  0.00    -0.481 OA
ATOM     10  C   UNL     1      -0.099   1.777  -0.695  1.00  0.00     0.093 C 
ATOM     11  C   UNL     1      -1.246  -0.333  -1.549  1.00  0.00     0.245 C 
BRANCH   3  12
ATOM     12  O   UNL     1      -4.728   4.592  -2.541  1.00  0.00    -0.508 OA
ATOM     13  H   UNL     1      -4.881   5.572  -2.335  1.00  0.00     0.293 HD
ENDBRANCH   3  12
BRANCH   6  14
ATOM     14  O   UNL     1      -0.618   4.595  -0.016  1.00  0.00    -0.507 OA
ATOM     15  H   UNL     1       0.192   4.166   0.414  1.00  0.00     0.293 HD
ENDBRANCH   6  14
BRANCH  11  16
ATOM     16  C   UNL     1      -1.871  -0.858  -0.254  1.00  0.00     0.004 A 
ATOM     17  C   UNL     1      -1.194  -0.927   0.982  1.00  0.00     0.058 A 
ATOM     18  C   UNL     1      -3.178  -1.371  -0.322  1.00  0.00     0.058 A 
ATOM     19  C   UNL     1      -1.814  -1.453   2.122  1.00  0.00     0.161 A 
ATOM     20  C   UNL     1      -3.809  -1.898   0.810  1.00  0.00     0.161 A 
ATOM     21  C   UNL     1      -3.139  -1.939   2.038  1.00  0.00     0.200 A 
BRANCH  19  22
ATOM     22  O   UNL     1      -1.078  -1.476   3.308  1.00  0.00    -0.504 OA
ATOM     23  H   UNL     1      -1.424  -1.843   4.183  1.00  0.00     0.293 HD
ENDBRANCH  19  22
BRANCH  20  24
ATOM     24  O   UNL     1      -5.112  -2.387   0.722  1.00  0.00    -0.504 OA
ATOM     25  H   UNL     1      -5.627  -2.373  -0.151  1.00  0.00     0.293 HD
ENDBRANCH  20  24
BRANCH  21  26
ATOM     26  O   UNL     1      -3.817  -2.468   3.139  1.00  0.00    -0.502 OA
ATOM     27  H   UNL     1      -3.425  -2.533   4.067  1.00  0.00     0.293 HD
ENDBRANCH  21  26
ENDBRANCH  11  16
ENDBRANCH   1   2
BRANCH   1  28
ATOM     28  C   UNL     1       2.469  -0.072  -0.912  1.00  0.00     0.338 C 
ATOM     29  O   UNL     1       2.880   0.906  -1.595  1.00  0.00    -0.246 OA
BRANCH  28  30
ATOM     30  C   UNL     1       3.430  -0.916  -0.168  1.00  0.00     0.067 A 
ATOM     31  C   UNL     1       2.971  -1.995   0.606  1.00  0.00     0.066 A 
ATOM     32  C   UNL     1       4.809  -0.651  -0.220  1.00  0.00     0.066 A 
ATOM     33  C   UNL     1       3.870  -2.797   1.317  1.00  0.00     0.162 A 
ATOM     34  C   UNL     1       5.716  -1.450   0.489  1.00  0.00     0.162 A 
ATOM     35  C   UNL     1       5.248  -2.527   1.261  1.00  0.00     0.200 A 
BRANCH  33  36
ATOM     36  O   UNL     1       3.374  -3.857   2.075  1.00  0.00    -0.504 OA
ATOM     37  H   UNL     1       3.980  -4.468   2.609  1.00  0.00     0.293 HD
ENDBRANCH  33  36
BRANCH  34  38
ATOM     38  O   UNL     1       7.082  -1.177   0.430  1.00  0.00    -0.504 OA
ATOM     39  H   UNL     1       7.447  -0.407  -0.119  1.00  0.00     0.293 HD
ENDBRANCH  34  38
BRANCH  35  40
ATOM     40  O   UNL     1       6.138  -3.332   1.974  1.00  0.00    -0.502 OA
ATOM     41  H   UNL     1       7.138  -3.174   1.962  1.00  0.00     0.293 HD
ENDBRANCH  35  40
ENDBRANCH  28  30
ENDBRANCH   1  28
TORSDOF 12
