REMARK SMILES O=C(c1ccc(F)cc1)C1CCN(CCn2c(=O)[nH]c3ccccc3c2=O)CC1
REMARK SMILES IDX 10 1 11 2 12 3 13 4 28 5 29 6 2 7 1 8 3 9 7 10 6 11 5 12
REMARK SMILES IDX 8 13 4 14 9 15 14 16 15 17 16 18 17 19 26 20 18 21 19 22
REMARK SMILES IDX 25 23 27 24 20 25 24 27 21 28 23 29 22 30
REMARK H PARENT 19 26
REMARK Flexibility Score: inf
ROOT
ATOM      1  C   UNL     1       2.416   1.275   0.687  1.00  0.00     0.064 C 
ATOM      2  C   UNL     1       1.856   0.797  -0.662  1.00  0.00     0.027 C 
ATOM      3  C   UNL     1       0.317   0.757  -0.620  1.00  0.00     0.085 C 
ATOM      4  N   UNL     1      -0.245   0.244   0.661  1.00  0.00    -0.302 NA
ATOM      5  C   UNL     1       0.735  -0.480   1.504  1.00  0.00     0.085 C 
ATOM      6  C   UNL     1       1.964   0.378   1.860  1.00  0.00     0.027 C 
ENDROOT
BRANCH   1   7
ATOM      7  C   UNL     1       3.920   1.476   0.665  1.00  0.00     0.166 C 
ATOM      8  O   UNL     1       4.371   2.542   1.168  1.00  0.00    -0.294 OA
BRANCH   7   9
ATOM      9  C   UNL     1       4.888   0.503   0.083  1.00  0.00     0.018 A 
ATOM     10  F   UNL     1       7.691  -2.132  -1.537  1.00  0.00    -0.207 F 
ATOM     11  C   UNL     1       6.781  -1.276  -1.008  1.00  0.00     0.123 A 
ATOM     12  C   UNL     1       7.054   0.092  -0.961  1.00  0.00     0.040 A 
ATOM     13  C   UNL     1       5.572  -1.762  -0.507  1.00  0.00     0.040 A 
ATOM     14  C   UNL     1       6.118   0.976  -0.416  1.00  0.00     0.015 A 
ATOM     15  C   UNL     1       4.633  -0.882   0.038  1.00  0.00     0.015 A 
ENDBRANCH   7   9
ENDBRANCH   1   7
BRANCH   4  16
ATOM     16  C   UNL     1      -1.031   1.246   1.418  1.00  0.00     0.106 C 
BRANCH  16  17
ATOM     17  C   UNL     1      -2.228   0.587   2.118  1.00  0.00     0.146 C 
BRANCH  17  18
ATOM     18  N   UNL     1      -3.119  -0.068   1.136  1.00  0.00    -0.259 N 
ATOM     19  C   UNL     1      -2.996  -1.412   0.878  1.00  0.00     0.328 A 
ATOM     20  C   UNL     1      -4.043   0.678   0.447  1.00  0.00     0.264 A 
ATOM     21  O   UNL     1      -2.143  -2.109   1.496  1.00  0.00    -0.248 OA
ATOM     22  N   UNL     1      -3.790  -2.014  -0.048  1.00  0.00    -0.307 N 
ATOM     23  C   UNL     1      -4.870   0.070  -0.513  1.00  0.00     0.064 A 
ATOM     24  O   UNL     1      -4.155   1.916   0.671  1.00  0.00    -0.268 OA
ATOM     25  C   UNL     1      -4.719  -1.310  -0.746  1.00  0.00     0.055 A 
ATOM     26  H   UNL     1      -3.674  -3.040  -0.222  1.00  0.00     0.171 HD
ATOM     27  C   UNL     1      -5.832   0.796  -1.242  1.00  0.00     0.016 A 
ATOM     28  C   UNL     1      -5.528  -1.949  -1.700  1.00  0.00     0.027 A 
ATOM     29  C   UNL     1      -6.631   0.150  -2.188  1.00  0.00     0.001 A 
ATOM     30  C   UNL     1      -6.479  -1.220  -2.417  1.00  0.00     0.002 A 
ENDBRANCH  17  18
ENDBRANCH  16  17
ENDBRANCH   4  16
TORSDOF 5
