REMARK SMILES CC(O)c1cc(C(=O)N[C@@H](C)Cn2ccc(-c3ccc(C#N)c(Cl)c3)n2)n[nH]1
REMARK SMILES IDX 11 1 10 2 12 3 13 4 14 5 26 6 15 7 16 8 17 9 18 10 25 11
REMARK SMILES IDX 19 12 23 13 20 14 24 15 21 16 22 17 9 18 7 19 8 21 6 22
REMARK SMILES IDX 27 23 5 24 28 25 4 26 2 28 1 29 3 30
REMARK H PARENT 9 20 28 27 3 31
REMARK Flexibility Score: inf
ROOT
ATOM      1  C   UNL     1       0.177  -0.776  -1.002  1.00  0.00     0.033 C 
ATOM      2  C   UNL     1      -0.242   0.075   0.203  1.00  0.00     0.100 C 
ENDROOT
BRANCH   2   3
ATOM      3  C   UNL     1       0.778   1.196   0.477  1.00  0.00     0.168 C 
BRANCH   3   4
ATOM      4  N   UNL     1       2.073   0.646   0.869  1.00  0.00    -0.270 N 
ATOM      5  C   UNL     1       2.384   0.136   2.075  1.00  0.00     0.109 A 
ATOM      6  N   UNL     1       3.108   0.539   0.052  1.00  0.00    -0.173 NA
ATOM      7  C   UNL     1       3.685  -0.315   2.035  1.00  0.00     0.050 A 
ATOM      8  C   UNL     1       4.112  -0.044   0.741  1.00  0.00     0.092 A 
BRANCH   8   9
ATOM      9  C   UNL     1       5.445  -0.337   0.159  1.00  0.00     0.004 A 
ATOM     10  C   UNL     1       5.709  -0.010  -1.183  1.00  0.00     0.012 A 
ATOM     11  C   UNL     1       6.462  -0.938   0.924  1.00  0.00     0.032 A 
ATOM     12  C   UNL     1       6.959  -0.278  -1.747  1.00  0.00     0.022 A 
ATOM     13  C   UNL     1       7.715  -1.208   0.361  1.00  0.00     0.059 A 
ATOM     14  C   UNL     1       7.966  -0.877  -0.982  1.00  0.00     0.071 A 
ATOM     15  Cl  UNL     1       8.950  -1.962   1.364  1.00  0.00    -0.083 Cl
BRANCH  14  16
ATOM     16  C   UNL     1       9.248  -1.143  -1.587  1.00  0.00     0.101 C 
ATOM     17  N   UNL     1      10.276  -1.356  -2.072  1.00  0.00    -0.192 NA
ENDBRANCH  14  16
ENDBRANCH   8   9
ENDBRANCH   3   4
ENDBRANCH   2   3
BRANCH   2  18
ATOM     18  N   UNL     1      -1.569   0.653  -0.037  1.00  0.00    -0.346 N 
ATOM     19  C   UNL     1      -2.776  -0.114   0.099  1.00  0.00     0.272 C 
ATOM     20  H   UNL     1      -1.643   1.661  -0.303  1.00  0.00     0.164 HD
ATOM     21  O   UNL     1      -2.722  -1.320   0.465  1.00  0.00    -0.267 OA
BRANCH  19  22
ATOM     22  C   UNL     1      -4.084   0.499  -0.181  1.00  0.00     0.150 A 
ATOM     23  N   UNL     1      -4.253   1.778  -0.573  1.00  0.00    -0.170 NA
ATOM     24  C   UNL     1      -5.313  -0.128  -0.075  1.00  0.00     0.062 A 
ATOM     25  N   UNL     1      -5.551   1.983  -0.721  1.00  0.00    -0.279 N 
ATOM     26  C   UNL     1      -6.218   0.849  -0.438  1.00  0.00     0.064 A 
ATOM     27  H   UNL     1      -5.972   2.895  -1.006  1.00  0.00     0.190 HD
BRANCH  26  28
ATOM     28  C   UNL     1      -7.717   0.725  -0.434  1.00  0.00     0.159 C 
ATOM     29  C   UNL     1      -8.253   0.880   0.987  1.00  0.00     0.045 C 
BRANCH  28  30
ATOM     30  O   UNL     1      -8.103  -0.525  -0.942  1.00  0.00    -0.387 OA
ATOM     31  H   UNL     1      -7.955  -0.492  -1.923  1.00  0.00     0.211 HD
ENDBRANCH  28  30
ENDBRANCH  26  28
ENDBRANCH  19  22
ENDBRANCH   2  18
TORSDOF 8
