REMARK SMILES CC(C)(C)c1cc(NC(=O)Nc2ccc(-c3cn4c(n3)sc3cc(OCCN5CCOCC5)ccc34)cc2)no1
REMARK SMILES IDX 16 1 17 2 18 3 19 4 21 5 22 6 36 7 35 8 34 9 24 10 23 11
REMARK SMILES IDX 20 12 15 13 12 14 13 15 38 16 14 17 37 18 11 19 8 20 9 21
REMARK SMILES IDX 10 23 7 25 5 26 6 27 40 28 39 29 2 30 1 31 3 32 4 33 25 34
REMARK SMILES IDX 26 35 27 36 28 37 29 38 33 39 30 40 32 41 31 42
REMARK H PARENT 8 22 11 24
REMARK Flexibility Score: inf
ROOT
ATOM      1  C   UNL     1      -0.064  -0.256  -0.074  1.00  0.00     0.090 A 
ATOM      2  C   UNL     1      -1.181  -1.047   0.227  1.00  0.00     0.123 A 
ATOM      3  N   UNL     1      -2.141  -0.186   0.574  1.00  0.00    -0.290 N 
ATOM      4  C   UNL     1      -1.634   1.028   0.480  1.00  0.00     0.195 A 
ATOM      5  S   UNL     1      -2.721   2.249   0.912  1.00  0.00    -0.096 S 
ATOM      6  C   UNL     1      -3.918   1.069   1.242  1.00  0.00     0.058 A 
ATOM      7  C   UNL     1      -3.423  -0.212   0.992  1.00  0.00     0.065 A 
ATOM      8  C   UNL     1      -4.219  -1.339   1.169  1.00  0.00     0.032 A 
ATOM      9  C   UNL     1      -5.538  -1.157   1.622  1.00  0.00     0.048 A 
ATOM     10  C   UNL     1      -6.036   0.142   1.901  1.00  0.00     0.120 A 
ATOM     11  C   UNL     1      -5.213   1.265   1.708  1.00  0.00     0.067 A 
ATOM     12  N   UNL     1      -0.355   1.071   0.077  1.00  0.00    -0.219 NA
ENDROOT
BRANCH   1  13
ATOM     13  C   UNL     1       1.280  -0.745  -0.455  1.00  0.00     0.002 A 
ATOM     14  C   UNL     1       3.916  -1.592  -1.014  1.00  0.00     0.042 A 
ATOM     15  C   UNL     1       3.523  -0.266  -1.273  1.00  0.00     0.027 A 
ATOM     16  C   UNL     1       2.962  -2.507  -0.543  1.00  0.00     0.027 A 
ATOM     17  C   UNL     1       2.222   0.153  -0.985  1.00  0.00     0.012 A 
ATOM     18  C   UNL     1       1.657  -2.088  -0.259  1.00  0.00     0.012 A 
BRANCH  14  19
ATOM     19  N   UNL     1       5.263  -2.033  -1.260  1.00  0.00    -0.308 N 
ATOM     20  N   UNL     1       7.718  -1.684  -1.436  1.00  0.00    -0.289 N 
ATOM     21  C   UNL     1       6.424  -1.218  -1.022  1.00  0.00     0.324 C 
ATOM     22  H   UNL     1       7.765  -2.606  -1.930  1.00  0.00     0.173 HD
ATOM     23  O   UNL     1       6.303  -0.106  -0.440  1.00  0.00    -0.248 OA
ATOM     24  H   UNL     1       5.415  -3.030  -1.534  1.00  0.00     0.171 HD
BRANCH  20  25
ATOM     25  C   UNL     1       8.965  -1.013  -1.192  1.00  0.00     0.177 A 
ATOM     26  C   UNL     1      10.542   0.319  -0.517  1.00  0.00     0.144 A 
ATOM     27  C   UNL     1       9.178   0.114  -0.416  1.00  0.00     0.096 A 
ATOM     28  O   UNL     1      11.055  -0.627  -1.274  1.00  0.00    -0.359 OA
ATOM     29  N   UNL     1      10.136  -1.445  -1.696  1.00  0.00    -0.062 NA
BRANCH  26  30
ATOM     30  C   UNL     1      11.331   1.438   0.133  1.00  0.00     0.023 C 
ATOM     31  C   UNL     1      11.205   1.324   1.664  1.00  0.00     0.019 C 
ATOM     32  C   UNL     1      12.818   1.340  -0.260  1.00  0.00     0.019 C 
ATOM     33  C   UNL     1      10.778   2.800  -0.336  1.00  0.00     0.019 C 
ENDBRANCH  26  30
ENDBRANCH  20  25
ENDBRANCH  14  19
ENDBRANCH   1  13
BRANCH  10  34
ATOM     34  O   UNL     1      -7.326   0.344   2.410  1.00  0.00    -0.492 OA
BRANCH  34  35
ATOM     35  C   UNL     1      -8.491  -0.351   1.964  1.00  0.00     0.245 C 
BRANCH  35  36
ATOM     36  C   UNL     1      -9.001   0.279   0.661  1.00  0.00     0.126 C 
BRANCH  36  37
ATOM     37  N   UNL     1     -10.178  -0.444   0.132  1.00  0.00    -0.295 NA
ATOM     38  C   UNL     1     -11.356  -0.312   1.028  1.00  0.00     0.113 C 
ATOM     39  C   UNL     1     -10.481  -0.028  -1.259  1.00  0.00     0.113 C 
ATOM     40  C   UNL     1     -12.678  -0.288   0.241  1.00  0.00     0.175 C 
ATOM     41  C   UNL     1     -11.522   1.110  -1.298  1.00  0.00     0.175 C 
ATOM     42  O   UNL     1     -12.759   0.806  -0.658  1.00  0.00    -0.379 OA
ENDBRANCH  36  37
ENDBRANCH  35  36
ENDBRANCH  34  35
ENDBRANCH  10  34
TORSDOF 8
