REMARK SMILES c1cnc(N2CCN(Cc3ccc4c(c3)OCO4)CC2)nc1
REMARK SMILES IDX 8 1 7 2 6 3 5 4 20 5 19 6 9 7 10 8 15 9 11 10 14 11 12 12
REMARK SMILES IDX 13 13 16 14 18 15 17 16 4 17 3 18 21 19 2 20 22 21 1 22
REMARK H PARENT
REMARK Flexibility Score: inf
ROOT
ATOM      1  N   UNL     1      -0.229  -1.609   0.931  1.00  0.00    -0.296 NA
ATOM      2  C   UNL     1       0.084  -0.295   1.520  1.00  0.00     0.106 C 
ATOM      3  C   UNL     1       1.598  -0.140   1.669  1.00  0.00     0.135 C 
ATOM      4  N   UNL     1       2.276  -0.422   0.393  1.00  0.00    -0.338 N 
ATOM      5  C   UNL     1       1.867  -1.622  -0.354  1.00  0.00     0.135 C 
ATOM      6  C   UNL     1       0.341  -1.719  -0.423  1.00  0.00     0.106 C 
ENDROOT
BRANCH   1   7
ATOM      7  C   UNL     1      -1.674  -1.927   0.973  1.00  0.00     0.120 C 
BRANCH   7   8
ATOM      8  C   UNL     1      -2.533  -0.985   0.157  1.00  0.00    -0.030 A 
ATOM      9  C   UNL     1      -3.070   0.182   0.748  1.00  0.00     0.055 A 
ATOM     10  C   UNL     1      -2.813  -1.271  -1.205  1.00  0.00     0.009 A 
ATOM     11  C   UNL     1      -3.850   1.018  -0.045  1.00  0.00     0.166 A 
ATOM     12  C   UNL     1      -3.607  -0.398  -1.971  1.00  0.00     0.051 A 
ATOM     13  C   UNL     1      -4.106   0.741  -1.348  1.00  0.00     0.165 A 
ATOM     14  O   UNL     1      -4.471   2.202   0.304  1.00  0.00    -0.454 OA
ATOM     15  O   UNL     1      -4.901   1.737  -1.883  1.00  0.00    -0.454 OA
ATOM     16  C   UNL     1      -5.160   2.699  -0.851  1.00  0.00     0.468 C 
ENDBRANCH   7   8
ENDBRANCH   1   7
BRANCH   4  17
ATOM     17  C   UNL     1       3.525   0.232   0.078  1.00  0.00     0.225 A 
ATOM     18  N   UNL     1       3.947   1.302   0.809  1.00  0.00    -0.221 NA
ATOM     19  N   UNL     1       4.293  -0.208  -0.958  1.00  0.00    -0.221 NA
ATOM     20  C   UNL     1       5.115   1.935   0.525  1.00  0.00     0.117 A 
ATOM     21  C   UNL     1       5.467   0.397  -1.274  1.00  0.00     0.117 A 
ATOM     22  C   UNL     1       5.906   1.492  -0.533  1.00  0.00     0.040 A 
ENDBRANCH   4  17
TORSDOF 3
