REMARK SMILES CC1(C)CC[C@]2(NC(=O)C(C)(F)F)CC[C@]3(C)[C@H](C(=O)C=C4[C@@]5(C)C=C(C#N)C(=O)C(C)(C)[C@@H]5CC[C@]43C)[C@@H]2C1
REMARK SMILES IDX 6 1 5 2 4 3 2 4 1 5 3 6 40 7 39 8 18 9 19 10 20 11 21 12
REMARK SMILES IDX 22 13 23 14 24 15 25 16 26 17 29 18 30 19 31 20 32 21 33 22
REMARK SMILES IDX 34 23 35 24 36 25 37 26 38 27 16 28 17 29 15 30 14 31 7 32
REMARK SMILES IDX 8 33 9 34 10 36 11 37 12 38 13 39 27 40 28 41
REMARK H PARENT 7 35
REMARK Flexibility Score: inf
ROOT
ATOM      1  C   UNL     1      -3.423  -0.045   0.085  1.00  0.00     0.044 C 
ATOM      2  C   UNL     1      -4.840   0.532   0.368  1.00  0.00     0.029 C 
ATOM      3  C   UNL     1      -4.853   1.936   0.990  1.00  0.00     0.009 C 
ATOM      4  C   UNL     1      -4.023   2.966   0.190  1.00  0.00    -0.035 C 
ATOM      5  C   UNL     1      -4.685   3.285  -1.172  1.00  0.00     0.011 C 
ATOM      6  C   UNL     1      -3.958   4.280   1.000  1.00  0.00     0.011 C 
ATOM      7  C   UNL     1      -2.585   2.423   0.009  1.00  0.00     0.013 C 
ATOM      8  C   UNL     1      -2.532   1.019  -0.651  1.00  0.00     0.027 C 
ATOM      9  C   UNL     1      -1.084   0.459  -0.870  1.00  0.00     0.073 C 
ATOM     10  C   UNL     1      -0.159   1.327  -1.693  1.00  0.00     0.159 C 
ATOM     11  O   UNL     1      -0.628   2.120  -2.554  1.00  0.00    -0.295 OA
ATOM     12  C   UNL     1       1.310   1.182  -1.571  1.00  0.00     0.048 C 
ATOM     13  C   UNL     1       1.902   0.290  -0.727  1.00  0.00    -0.050 C 
ATOM     14  C   UNL     1       3.444   0.254  -0.613  1.00  0.00     0.013 C 
ATOM     15  C   UNL     1       3.988  -0.426  -1.895  1.00  0.00     0.021 C 
ATOM     16  C   UNL     1       4.039   1.659  -0.544  1.00  0.00     0.007 C 
ATOM     17  C   UNL     1       5.309   1.852  -0.167  1.00  0.00     0.092 C 
ATOM     18  C   UNL     1       6.120   0.726   0.343  1.00  0.00     0.178 C 
ATOM     19  O   UNL     1       7.378   0.829   0.349  1.00  0.00    -0.293 OA
ATOM     20  C   UNL     1       5.459  -0.511   0.938  1.00  0.00     0.033 C 
ATOM     21  C   UNL     1       6.111  -1.789   0.347  1.00  0.00     0.020 C 
ATOM     22  C   UNL     1       5.760  -0.492   2.457  1.00  0.00     0.020 C 
ATOM     23  C   UNL     1       3.892  -0.458   0.712  1.00  0.00     0.016 C 
ATOM     24  C   UNL     1       3.177  -1.802   0.918  1.00  0.00     0.007 C 
ATOM     25  C   UNL     1       1.679  -1.568   1.100  1.00  0.00     0.012 C 
ATOM     26  C   UNL     1       1.004  -0.803  -0.090  1.00  0.00    -0.004 C 
ATOM     27  C   UNL     1       0.762  -1.876  -1.206  1.00  0.00     0.017 C 
ATOM     28  C   UNL     1      -0.343  -0.079   0.406  1.00  0.00    -0.013 C 
ATOM     29  C   UNL     1       0.051   1.108   1.367  1.00  0.00     0.013 C 
ATOM     30  C   UNL     1      -1.304  -1.051   1.167  1.00  0.00     0.011 C 
ATOM     31  C   UNL     1      -2.714  -0.466   1.406  1.00  0.00     0.029 C 
ENDROOT
BRANCH   1  32
ATOM     32  N   UNL     1      -3.594  -1.226  -0.795  1.00  0.00    -0.345 N 
ATOM     33  C   UNL     1      -4.158  -2.488  -0.392  1.00  0.00     0.290 C 
ATOM     34  O   UNL     1      -4.902  -2.559   0.624  1.00  0.00    -0.268 OA
ATOM     35  H   UNL     1      -3.334  -1.144  -1.804  1.00  0.00     0.164 HD
BRANCH  33  36
ATOM     36  C   UNL     1      -3.931  -3.721  -1.227  1.00  0.00     0.321 C 
ATOM     37  C   UNL     1      -3.650  -4.940  -0.350  1.00  0.00     0.098 C 
ATOM     38  F   UNL     1      -5.057  -3.958  -1.995  1.00  0.00    -0.196 F 
ATOM     39  F   UNL     1      -2.849  -3.533  -2.071  1.00  0.00    -0.196 F 
ENDBRANCH  33  36
ENDBRANCH   1  32
BRANCH  17  40
ATOM     40  C   UNL     1       5.875   3.178  -0.213  1.00  0.00     0.103 C 
ATOM     41  N   UNL     1       6.329   4.242  -0.248  1.00  0.00    -0.192 NA
ENDBRANCH  17  40
TORSDOF 3
