REMARK SMILES CCN1CCC[C@H]1CNC(=O)c1c(O)c(Cl)cc(Cl)c1OC
REMARK SMILES IDX 9 1 10 2 11 3 8 5 7 6 3 7 4 8 5 9 6 10 2 11 1 12 12 13 13 14
REMARK SMILES IDX 20 15 15 16 18 17 16 18 17 19 19 20 14 21 21 23 22 24
REMARK H PARENT 9 4 14 22
REMARK Flexibility Score: inf
ROOT
ATOM      1  N   UNL     1       0.369  -0.162  -0.082  1.00  0.00    -0.350 N 
ATOM      2  C   UNL     1       1.588  -0.051  -0.829  1.00  0.00     0.259 C 
ATOM      3  O   UNL     1       1.572   0.448  -1.988  1.00  0.00    -0.269 OA
ATOM      4  H   UNL     1       0.419  -0.444   0.923  1.00  0.00     0.163 HD
ENDROOT
BRANCH   1   5
ATOM      5  C   UNL     1      -0.926   0.156  -0.685  1.00  0.00     0.135 C 
BRANCH   5   6
ATOM      6  C   UNL     1      -2.082  -0.093   0.299  1.00  0.00     0.076 C 
ATOM      7  N   UNL     1      -3.362   0.309  -0.329  1.00  0.00    -0.299 NA
ATOM      8  C   UNL     1      -4.246  -0.869  -0.283  1.00  0.00     0.085 C 
ATOM      9  C   UNL     1      -3.673  -1.839   0.728  1.00  0.00     0.017 C 
ATOM     10  C   UNL     1      -2.192  -1.572   0.684  1.00  0.00     0.022 C 
BRANCH   7  11
ATOM     11  C   UNL     1      -3.985   1.470   0.346  1.00  0.00     0.081 C 
ATOM     12  C   UNL     1      -3.216   2.758   0.056  1.00  0.00     0.021 C 
ENDBRANCH   7  11
ENDBRANCH   5   6
ENDBRANCH   1   5
BRANCH   2  13
ATOM     13  C   UNL     1       2.872  -0.496  -0.244  1.00  0.00     0.126 A 
ATOM     14  C   UNL     1       2.963  -1.752   0.396  1.00  0.00     0.150 A 
ATOM     15  C   UNL     1       4.027   0.309  -0.366  1.00  0.00     0.154 A 
ATOM     16  C   UNL     1       4.198  -2.182   0.919  1.00  0.00     0.085 A 
ATOM     17  C   UNL     1       5.254  -0.147   0.134  1.00  0.00     0.085 A 
ATOM     18  Cl  UNL     1       4.365  -3.731   1.736  1.00  0.00    -0.080 Cl
ATOM     19  C   UNL     1       5.333  -1.381   0.780  1.00  0.00     0.049 A 
ATOM     20  Cl  UNL     1       6.701   0.837  -0.019  1.00  0.00    -0.080 Cl
BRANCH  14  21
ATOM     21  O   UNL     1       1.828  -2.564   0.480  1.00  0.00    -0.505 OA
ATOM     22  H   UNL     1       1.833  -3.476   0.919  1.00  0.00     0.293 HD
ENDBRANCH  14  21
BRANCH  15  23
ATOM     23  O   UNL     1       3.969   1.565  -0.978  1.00  0.00    -0.494 OA
ATOM     24  C   UNL     1       3.392   2.690  -0.325  1.00  0.00     0.278 C 
ENDBRANCH  15  23
ENDBRANCH   2  13
TORSDOF 6
