REMARK SMILES CCc1oc2ccccc2c1C(=O)c1cc(Br)c(O)c(Br)c1
REMARK SMILES IDX 12 1 13 2 11 3 3 4 4 5 10 6 5 7 9 8 6 9 8 10 7 11 2 12 1 13
REMARK SMILES IDX 14 14 15 15 22 16 16 17 20 18 17 19 18 20 21 21 19 22
REMARK H PARENT 19 23
REMARK Flexibility Score: inf
ROOT
ATOM      1  C   UNL     1       0.336   1.108  -0.632  1.00  0.00     0.197 C 
ATOM      2  O   UNL     1       0.239   2.150  -1.334  1.00  0.00    -0.288 OA
ENDROOT
BRANCH   1   3
ATOM      3  C   UNL     1      -0.893   0.519  -0.058  1.00  0.00     0.072 A 
ATOM      4  C   UNL     1      -1.986   1.195   0.491  1.00  0.00     0.116 A 
ATOM      5  O   UNL     1      -2.911   0.335   0.879  1.00  0.00    -0.460 OA
ATOM      6  C   UNL     1      -1.234  -0.819   0.023  1.00  0.00     0.032 A 
ATOM      7  C   UNL     1      -2.474  -0.870   0.607  1.00  0.00     0.135 A 
ATOM      8  C   UNL     1      -0.580  -1.977  -0.406  1.00  0.00     0.013 A 
ATOM      9  C   UNL     1      -3.129  -2.078   0.835  1.00  0.00     0.048 A 
ATOM     10  C   UNL     1      -1.217  -3.211  -0.188  1.00  0.00     0.001 A 
ATOM     11  C   UNL     1      -2.484  -3.262   0.434  1.00  0.00     0.004 A 
BRANCH   4  12
ATOM     12  C   UNL     1      -2.146   2.679   0.629  1.00  0.00     0.073 C 
ATOM     13  C   UNL     1      -2.910   3.250  -0.560  1.00  0.00     0.012 C 
ENDBRANCH   4  12
ENDBRANCH   1   3
BRANCH   1  14
ATOM     14  C   UNL     1       1.673   0.513  -0.400  1.00  0.00     0.025 A 
ATOM     15  C   UNL     1       1.949  -0.202   0.778  1.00  0.00     0.031 A 
ATOM     16  C   UNL     1       2.695   0.686  -1.347  1.00  0.00     0.031 A 
ATOM     17  C   UNL     1       3.214  -0.758   0.991  1.00  0.00     0.061 A 
ATOM     18  C   UNL     1       3.964   0.134  -1.139  1.00  0.00     0.061 A 
ATOM     19  Br  UNL     1       3.539  -1.737   2.603  1.00  0.00    -0.047 Br
ATOM     20  C   UNL     1       4.228  -0.597   0.036  1.00  0.00     0.143 A 
ATOM     21  Br  UNL     1       5.299   0.402  -2.488  1.00  0.00    -0.047 Br
BRANCH  20  22
ATOM     22  O   UNL     1       5.480  -1.165   0.276  1.00  0.00    -0.506 OA
ATOM     23  H   UNL     1       6.254  -1.086  -0.371  1.00  0.00     0.293 HD
ENDBRANCH  20  22
ENDBRANCH   1  14
TORSDOF 4
