REMARK SMILES CC1(C)CCC(c2ccc(Cl)cc2)=C(CN2CCN(c3ccc(C(=O)NS(=O)(=O)c4ccc(N[C@H](CCN5CCOCC5)CSc5ccccc5)c(S(=O)(=O)C(F)(F)F)c4)cc3)CC2)C1
REMARK SMILES IDX 27 1 28 2 29 3 30 4 33 5 52 6 32 7 60 8 31 9 34 10 35 12
REMARK SMILES IDX 36 13 37 14 38 15 39 16 43 17 40 18 42 19 41 20 44 21 45 22
REMARK SMILES IDX 46 23 47 24 51 25 48 26 50 27 49 28 53 29 54 30 55 31 56 32
REMARK SMILES IDX 57 33 58 34 59 35 26 36 24 37 25 39 23 40 22 41 61 42 21 43
REMARK SMILES IDX 62 44 20 45 19 46 18 47 63 48 17 49 64 50 16 51 15 52 14 53
REMARK SMILES IDX 6 54 65 55 5 56 2 57 4 58 1 59 3 60 7 61 8 62 13 63 9 64
REMARK SMILES IDX 12 65 10 66 11 67
REMARK H PARENT 34 11 26 38
REMARK Flexibility Score: inf
ROOT
ATOM      1  S   UNL     1       2.388   2.261   2.392  1.00  0.00     0.264 S 
ATOM      2  O   UNL     1       1.938   1.504   3.608  1.00  0.00    -0.201 OA
ATOM      3  O   UNL     1       2.598   3.703   2.748  1.00  0.00    -0.201 OA
ENDROOT
BRANCH   1   4
ATOM      4  C   UNL     1       3.924   1.588   1.833  1.00  0.00     0.089 A 
ATOM      5  C   UNL     1       6.391   0.526   0.969  1.00  0.00     0.054 A 
ATOM      6  C   UNL     1       5.178  -0.022   0.491  1.00  0.00     0.101 A 
ATOM      7  C   UNL     1       6.346   1.550   1.928  1.00  0.00     0.028 A 
ATOM      8  C   UNL     1       3.956   0.512   0.938  1.00  0.00     0.045 A 
ATOM      9  C   UNL     1       5.129   2.091   2.342  1.00  0.00     0.024 A 
BRANCH   5  10
ATOM     10  N   UNL     1       7.670  -0.010   0.583  1.00  0.00    -0.380 N 
ATOM     11  H   UNL     1       8.052  -0.781   1.173  1.00  0.00     0.160 HD
BRANCH  10  12
ATOM     12  C   UNL     1       8.497   0.580  -0.485  1.00  0.00     0.090 C 
BRANCH  12  13
ATOM     13  C   UNL     1       9.841  -0.183  -0.607  1.00  0.00     0.041 C 
BRANCH  13  14
ATOM     14  C   UNL     1       9.740  -1.543  -1.331  1.00  0.00     0.087 C 
BRANCH  14  15
ATOM     15  N   UNL     1       9.213  -2.609  -0.448  1.00  0.00    -0.299 NA
ATOM     16  C   UNL     1      10.246  -3.145   0.474  1.00  0.00     0.113 C 
ATOM     17  C   UNL     1       8.599  -3.702  -1.237  1.00  0.00     0.113 C 
ATOM     18  C   UNL     1      10.910  -4.432  -0.056  1.00  0.00     0.175 C 
ATOM     19  C   UNL     1       9.659  -4.527  -2.005  1.00  0.00     0.175 C 
ATOM     20  O   UNL     1      10.964  -4.410  -1.465  1.00  0.00    -0.379 OA
ENDBRANCH  14  15
ENDBRANCH  13  14
ENDBRANCH  12  13
BRANCH  12  21
ATOM     21  C   UNL     1       8.766   2.073  -0.197  1.00  0.00     0.099 C 
BRANCH  21  22
ATOM     22  S   UNL     1       9.492   2.928  -1.649  1.00  0.00    -0.124 SA
BRANCH  22  23
ATOM     23  C   UNL     1      10.947   3.543  -0.787  1.00  0.00     0.007 A 
ATOM     24  C   UNL     1      10.864   4.701   0.000  1.00  0.00     0.015 A 
ATOM     25  C   UNL     1      12.174   2.868  -0.908  1.00  0.00     0.015 A 
ATOM     26  C   UNL     1      11.993   5.164   0.682  1.00  0.00     0.001 A 
ATOM     27  C   UNL     1      13.306   3.348  -0.237  1.00  0.00     0.001 A 
ATOM     28  C   UNL     1      13.213   4.489   0.563  1.00  0.00     0.000 A 
ENDBRANCH  22  23
ENDBRANCH  21  22
ENDBRANCH  12  21
ENDBRANCH  10  12
ENDBRANCH   5  10
BRANCH   6  29
ATOM     29  S   UNL     1       5.137  -1.425  -0.582  1.00  0.00     0.278 S 
ATOM     30  O   UNL     1       3.810  -1.479  -1.296  1.00  0.00    -0.214 OA
ATOM     31  O   UNL     1       6.222  -1.331  -1.614  1.00  0.00    -0.214 OA
BRANCH  29  32
ATOM     32  C   UNL     1       5.322  -2.915   0.374  1.00  0.00     0.501 C 
ATOM     33  F   UNL     1       4.315  -2.985   1.319  1.00  0.00    -0.156 F 
ATOM     34  F   UNL     1       6.544  -2.913   1.012  1.00  0.00    -0.156 F 
ATOM     35  F   UNL     1       5.236  -4.006  -0.461  1.00  0.00    -0.156 F 
ENDBRANCH  29  32
ENDBRANCH   6  29
ENDBRANCH   1   4
BRANCH   1  36
ATOM     36  N   UNL     1       1.163   2.159   1.167  1.00  0.00    -0.245 N 
ATOM     37  C   UNL     1      -0.101   2.812   1.335  1.00  0.00     0.264 C 
ATOM     38  H   UNL     1       1.294   1.495   0.373  1.00  0.00     0.183 HD
ATOM     39  O   UNL     1      -0.149   3.926   1.922  1.00  0.00    -0.268 OA
BRANCH  37  40
ATOM     40  C   UNL     1      -1.350   2.195   0.831  1.00  0.00     0.040 A 
ATOM     41  C   UNL     1      -1.439   0.805   0.644  1.00  0.00     0.016 A 
ATOM     42  C   UNL     1      -2.489   2.983   0.594  1.00  0.00     0.016 A 
ATOM     43  C   UNL     1      -2.637   0.219   0.226  1.00  0.00     0.027 A 
ATOM     44  C   UNL     1      -3.686   2.398   0.162  1.00  0.00     0.027 A 
ATOM     45  C   UNL     1      -3.774   1.007  -0.011  1.00  0.00     0.037 A 
BRANCH  45  46
ATOM     46  N   UNL     1      -5.019   0.393  -0.410  1.00  0.00    -0.369 N 
ATOM     47  C   UNL     1      -5.836   0.990  -1.468  1.00  0.00     0.132 C 
ATOM     48  C   UNL     1      -5.464  -0.861   0.207  1.00  0.00     0.132 C 
ATOM     49  C   UNL     1      -6.746  -0.071  -2.100  1.00  0.00     0.106 C 
ATOM     50  C   UNL     1      -6.996  -0.902   0.238  1.00  0.00     0.106 C 
ATOM     51  N   UNL     1      -7.614  -0.757  -1.110  1.00  0.00    -0.296 NA
BRANCH  51  52
ATOM     52  C   UNL     1      -8.942  -0.103  -1.034  1.00  0.00     0.116 C 
BRANCH  52  53
ATOM     53  C   UNL     1      -9.936  -0.895  -0.198  1.00  0.00    -0.052 C 
ATOM     54  C   UNL     1     -10.905  -0.288   0.523  1.00  0.00    -0.040 C 
ATOM     55  C   UNL     1      -9.978  -2.408  -0.295  1.00  0.00     0.039 C 
ATOM     56  C   UNL     1     -11.925  -1.142   1.225  1.00  0.00     0.037 C 
ATOM     57  C   UNL     1     -11.415  -2.918  -0.614  1.00  0.00    -0.031 C 
ATOM     58  C   UNL     1     -12.504  -2.175   0.245  1.00  0.00     0.011 C 
ATOM     59  C   UNL     1     -11.701  -2.696  -2.116  1.00  0.00     0.011 C 
ATOM     60  C   UNL     1     -11.472  -4.431  -0.332  1.00  0.00     0.011 C 
BRANCH  54  61
ATOM     61  C   UNL     1     -11.060   1.179   0.561  1.00  0.00    -0.022 A 
ATOM     62  C   UNL     1     -11.826   1.828  -0.422  1.00  0.00     0.010 A 
ATOM     63  C   UNL     1     -10.410   1.932   1.550  1.00  0.00     0.010 A 
ATOM     64  C   UNL     1     -11.939   3.220  -0.412  1.00  0.00     0.021 A 
ATOM     65  C   UNL     1     -10.522   3.326   1.553  1.00  0.00     0.021 A 
ATOM     66  C   UNL     1     -11.283   3.971   0.571  1.00  0.00     0.041 A 
ATOM     67  Cl  UNL     1     -11.414   5.721   0.569  1.00  0.00    -0.084 Cl
ENDBRANCH  54  61
ENDBRANCH  52  53
ENDBRANCH  51  52
ENDBRANCH  45  46
ENDBRANCH  37  40
ENDBRANCH   1  36
TORSDOF 17
