REMARK SMILES CCCCC[C@H](O)/C=C/[C@@H]1[C@@H](C/C=C\CCCC(=O)O)[C@@H](O)C[C@H]1O
REMARK SMILES IDX 11 1 21 2 23 3 24 4 10 5 12 6 13 7 14 8 15 9 16 10 17 11
REMARK SMILES IDX 18 12 19 13 20 14 22 16 9 18 8 19 6 20 7 21 5 23 4 24 3 25
REMARK SMILES IDX 2 26 1 27 25 28
REMARK H PARENT 20 15 22 17 7 22 25 29
REMARK Flexibility Score: inf
ROOT
ATOM      1  C   UNL     1       1.205  -0.113   0.303  1.00  0.00     0.031 C 
ATOM      2  C   UNL     1       1.797   1.287   0.553  1.00  0.00     0.121 C 
ATOM      3  C   UNL     1       1.524   2.077  -0.717  1.00  0.00     0.064 C 
ATOM      4  C   UNL     1       0.186   1.552  -1.225  1.00  0.00     0.124 C 
ATOM      5  C   UNL     1       0.083   0.086  -0.753  1.00  0.00     0.046 C 
ENDROOT
BRANCH   1   6
ATOM      6  C   UNL     1       2.241  -1.189  -0.126  1.00  0.00     0.034 C 
BRANCH   6   7
ATOM      7  C   UNL     1       3.036  -0.813  -1.363  1.00  0.00    -0.031 C 
ATOM      8  C   UNL     1       4.379  -0.844  -1.448  1.00  0.00    -0.031 C 
BRANCH   8   9
ATOM      9  C   UNL     1       5.285  -1.234  -0.305  1.00  0.00     0.027 C 
BRANCH   9  10
ATOM     10  C   UNL     1       6.763  -1.149  -0.712  1.00  0.00     0.016 C 
BRANCH  10  11
ATOM     11  C   UNL     1       7.708  -1.551   0.434  1.00  0.00     0.123 C 
BRANCH  11  12
ATOM     12  C   UNL     1       8.003  -0.421   1.378  1.00  0.00     0.303 C 
ATOM     13  O   UNL     1       7.078   0.329   1.796  1.00  0.00    -0.252 OA
BRANCH  12  14
ATOM     14  O   UNL     1       9.306  -0.223   1.828  1.00  0.00    -0.481 OA
ATOM     15  H   UNL     1       9.525   0.528   2.473  1.00  0.00     0.296 HD
ENDBRANCH  12  14
ENDBRANCH  11  12
ENDBRANCH  10  11
ENDBRANCH   9  10
ENDBRANCH   8   9
ENDBRANCH   6   7
ENDBRANCH   1   6
BRANCH   2  16
ATOM     16  O   UNL     1       3.168   1.253   0.853  1.00  0.00    -0.393 OA
ATOM     17  H   UNL     1       3.412   2.162   1.171  1.00  0.00     0.210 HD
ENDBRANCH   2  16
BRANCH   5  18
ATOM     18  C   UNL     1      -1.296  -0.211  -0.196  1.00  0.00    -0.022 C 
ATOM     19  C   UNL     1      -2.382  -0.198  -0.986  1.00  0.00     0.000 C 
BRANCH  19  20
ATOM     20  C   UNL     1      -3.767  -0.482  -0.456  1.00  0.00     0.137 C 
BRANCH  20  21
ATOM     21  O   UNL     1      -3.791  -1.732   0.184  1.00  0.00    -0.389 OA
ATOM     22  H   UNL     1      -3.747  -2.421  -0.530  1.00  0.00     0.211 HD
ENDBRANCH  20  21
BRANCH  20  23
ATOM     23  C   UNL     1      -4.214   0.620   0.522  1.00  0.00     0.036 C 
BRANCH  23  24
ATOM     24  C   UNL     1      -5.653   0.431   1.037  1.00  0.00     0.003 C 
BRANCH  24  25
ATOM     25  C   UNL     1      -6.712   0.705  -0.047  1.00  0.00    -0.000 C 
BRANCH  25  26
ATOM     26  C   UNL     1      -8.141   0.735   0.519  1.00  0.00    -0.003 C 
ATOM     27  C   UNL     1      -8.634  -0.647   0.949  1.00  0.00     0.004 C 
ENDBRANCH  25  26
ENDBRANCH  24  25
ENDBRANCH  23  24
ENDBRANCH  20  23
ENDBRANCH  19  20
ENDBRANCH   5  18
BRANCH   4  28
ATOM     28  O   UNL     1       0.120   1.626  -2.626  1.00  0.00    -0.392 OA
ATOM     29  H   UNL     1      -0.006   2.586  -2.852  1.00  0.00     0.210 HD
ENDBRANCH   4  28
TORSDOF 16
