REMARK SMILES N=C(N)Nc1ccc(C(=O)Oc2ccc3cc(C(=N)N)ccc3c2)cc1
REMARK SMILES IDX 9 1 10 2 8 3 5 4 6 5 26 6 7 7 25 8 4 9 3 10 2 11 1 14 11 17
REMARK SMILES IDX 12 18 24 19 13 20 23 21 14 22 15 23 22 24 16 25 21 26 17 27
REMARK SMILES IDX 18 28 20 29 19 30
REMARK H PARENT 3 12 3 13 1 15 4 16 20 31 20 32 19 33
REMARK Flexibility Score: inf
ROOT
ATOM      1  C   UNL     1       1.089   0.350   0.484  1.00  0.00     0.343 C 
ATOM      2  O   UNL     1       0.656   0.078   1.638  1.00  0.00    -0.246 OA
ENDROOT
BRANCH   1   3
ATOM      3  C   UNL     1       2.535   0.240   0.192  1.00  0.00     0.060 A 
ATOM      4  C   UNL     1       5.294   0.045  -0.372  1.00  0.00     0.041 A 
ATOM      5  C   UNL     1       4.394   0.458  -1.363  1.00  0.00     0.027 A 
ATOM      6  C   UNL     1       4.801  -0.303   0.897  1.00  0.00     0.027 A 
ATOM      7  C   UNL     1       3.028   0.563  -1.083  1.00  0.00     0.018 A 
ATOM      8  C   UNL     1       3.436  -0.200   1.178  1.00  0.00     0.018 A 
BRANCH   4   9
ATOM      9  N   UNL     1       6.691  -0.077  -0.694  1.00  0.00    -0.327 N 
ATOM     10  N   UNL     1       9.096  -0.199  -0.120  1.00  0.00    -0.370 N 
ATOM     11  C   UNL     1       7.764   0.190   0.223  1.00  0.00     0.190 C 
ATOM     12  H   UNL     1       9.897   0.006   0.519  1.00  0.00     0.159 HD
ATOM     13  H   UNL     1       9.285  -0.701  -1.015  1.00  0.00     0.159 HD
ATOM     14  N   UNL     1       7.542   0.831   1.328  1.00  0.00    -0.269 NA
ATOM     15  H   UNL     1       8.311   1.055   1.998  1.00  0.00     0.191 HD
ATOM     16  H   UNL     1       6.947  -0.300  -1.683  1.00  0.00     0.170 HD
ENDBRANCH   4   9
ENDBRANCH   1   3
BRANCH   1  17
ATOM     17  O   UNL     1       0.213   0.810  -0.511  1.00  0.00    -0.423 OA
BRANCH  17  18
ATOM     18  C   UNL     1      -1.184   0.694  -0.480  1.00  0.00     0.131 A 
ATOM     19  C   UNL     1      -1.835  -0.376   0.162  1.00  0.00     0.056 A 
ATOM     20  C   UNL     1      -1.946   1.659  -1.149  1.00  0.00     0.048 A 
ATOM     21  C   UNL     1      -3.236  -0.458   0.159  1.00  0.00    -0.015 A 
ATOM     22  C   UNL     1      -3.341   1.586  -1.157  1.00  0.00     0.012 A 
ATOM     23  C   UNL     1      -3.996   0.533  -0.504  1.00  0.00    -0.017 A 
ATOM     24  C   UNL     1      -3.891  -1.517   0.803  1.00  0.00     0.009 A 
ATOM     25  C   UNL     1      -5.397   0.450  -0.507  1.00  0.00     0.020 A 
ATOM     26  C   UNL     1      -5.286  -1.592   0.796  1.00  0.00     0.012 A 
ATOM     27  C   UNL     1      -6.052  -0.609   0.145  1.00  0.00     0.017 A 
BRANCH  27  28
ATOM     28  C   UNL     1      -7.535  -0.690   0.132  1.00  0.00     0.122 C 
ATOM     29  N   UNL     1      -8.267  -0.295  -1.031  1.00  0.00    -0.384 N 
ATOM     30  N   UNL     1      -8.188  -1.109   1.171  1.00  0.00    -0.284 NA
ATOM     31  H   UNL     1      -9.311  -0.312  -1.027  1.00  0.00     0.158 HD
ATOM     32  H   UNL     1      -7.778  -0.038  -1.917  1.00  0.00     0.158 HD
ATOM     33  H   UNL     1      -7.719  -1.394   2.059  1.00  0.00     0.189 HD
ENDBRANCH  27  28
ENDBRANCH  17  18
ENDBRANCH   1  17
TORSDOF 5
