REMARK SMILES COC(=O)CC[C@@H]1N=C(c2ccccn2)c2cc(Br)ccc2-n2c(C)cnc21
REMARK SMILES IDX 5 1 3 2 4 3 2 4 1 5 6 6 7 7 8 8 28 9 9 10 23 11 27 12 16 13
REMARK SMILES IDX 22 14 24 15 26 16 17 17 21 18 25 19 18 20 20 21 19 22 10 23
REMARK SMILES IDX 11 24 15 25 12 26 14 27 13 28
REMARK H PARENT
REMARK Flexibility Score: inf
ROOT
ATOM      1  C   UNL     1       3.181  -0.841  -0.593  1.00  0.00     0.125 C 
ENDROOT
BRANCH   1   2
ATOM      2  C   UNL     1       4.167  -0.709   0.524  1.00  0.00     0.305 C 
ATOM      3  O   UNL     1       4.056  -1.438   1.548  1.00  0.00    -0.252 OA
BRANCH   2   4
ATOM      4  O   UNL     1       5.175   0.256   0.441  1.00  0.00    -0.469 OA
ATOM      5  C   UNL     1       6.128   0.459   1.477  1.00  0.00     0.282 C 
ENDBRANCH   2   4
ENDBRANCH   1   2
BRANCH   1   6
ATOM      6  C   UNL     1       1.999   0.112  -0.379  1.00  0.00     0.047 C 
BRANCH   6   7
ATOM      7  C   UNL     1       0.981   0.035  -1.536  1.00  0.00     0.173 C 
ATOM      8  N   UNL     1      -0.032   1.085  -1.439  1.00  0.00    -0.271 NA
ATOM      9  C   UNL     1       0.296  -1.295  -1.644  1.00  0.00     0.138 A 
ATOM     10  C   UNL     1      -0.981   1.208  -0.550  1.00  0.00     0.093 C 
ATOM     11  N   UNL     1      -0.621  -1.744  -0.761  1.00  0.00    -0.299 N 
ATOM     12  N   UNL     1       0.461  -2.120  -2.701  1.00  0.00    -0.239 NA
ATOM     13  C   UNL     1      -1.112   0.278   0.614  1.00  0.00     0.027 A 
ATOM     14  C   UNL     1      -0.970  -1.130   0.495  1.00  0.00     0.057 A 
ATOM     15  C   UNL     1      -1.068  -2.904  -1.290  1.00  0.00     0.040 A 
ATOM     16  C   UNL     1      -0.391  -3.136  -2.467  1.00  0.00     0.135 A 
ATOM     17  C   UNL     1      -1.369   0.832   1.884  1.00  0.00     0.028 A 
ATOM     18  C   UNL     1      -1.073  -1.930   1.648  1.00  0.00     0.028 A 
ATOM     19  C   UNL     1      -2.141  -3.784  -0.725  1.00  0.00     0.066 C 
ATOM     20  C   UNL     1      -1.495   0.018   3.010  1.00  0.00     0.018 A 
ATOM     21  C   UNL     1      -1.346  -1.361   2.891  1.00  0.00     0.018 A 
ATOM     22  Br  UNL     1      -1.847   0.797   4.718  1.00  0.00    -0.051 Br
BRANCH  10  23
ATOM     23  C   UNL     1      -1.912   2.350  -0.707  1.00  0.00     0.089 A 
ATOM     24  C   UNL     1      -3.233   2.294  -0.229  1.00  0.00     0.030 A 
ATOM     25  N   UNL     1      -1.492   3.466  -1.370  1.00  0.00    -0.255 NA
ATOM     26  C   UNL     1      -4.080   3.388  -0.417  1.00  0.00     0.004 A 
ATOM     27  C   UNL     1      -2.304   4.540  -1.563  1.00  0.00     0.112 A 
ATOM     28  C   UNL     1      -3.615   4.521  -1.085  1.00  0.00     0.020 A 
ENDBRANCH  10  23
ENDBRANCH   6   7
ENDBRANCH   1   6
TORSDOF 5
