REMARK SMILES Cc1nc(NC(=O)N2CCC[C@H]2C(N)=O)sc1-c1ccnc(C(C)(C)C(F)(F)F)c1
REMARK SMILES IDX 1 1 2 2 17 3 16 4 4 5 3 6 18 7 30 8 19 9 22 10 20 11 21 12
REMARK SMILES IDX 23 13 24 14 25 15 26 16 27 17 28 18 29 19 5 20 6 21 7 23
REMARK SMILES IDX 8 24 9 25 12 26 10 27 11 28 13 29 14 30 15 31
REMARK H PARENT 5 22 14 32 14 33
REMARK Flexibility Score: inf
ROOT
ATOM      1  C   UNL     1      -0.460   3.323   0.560  1.00  0.00     0.068 C 
ATOM      2  C   UNL     1      -0.180   1.850   0.512  1.00  0.00     0.058 A 
ATOM      3  C   UNL     1      -1.166   0.849   0.513  1.00  0.00     0.059 A 
ATOM      4  S   UNL     1      -0.389  -0.635   0.316  1.00  0.00    -0.096 S 
ATOM      5  C   UNL     1       1.143   0.048   0.282  1.00  0.00     0.191 A 
ATOM      6  N   UNL     1       1.096   1.395   0.391  1.00  0.00    -0.225 NA
ENDROOT
BRANCH   3   7
ATOM      7  C   UNL     1      -2.627   1.003   0.693  1.00  0.00    -0.003 A 
ATOM      8  C   UNL     1      -3.514   0.175  -0.019  1.00  0.00     0.034 A 
ATOM      9  C   UNL     1      -3.144   1.915   1.625  1.00  0.00     0.030 A 
ATOM     10  C   UNL     1      -4.902   0.274   0.197  1.00  0.00     0.056 A 
ATOM     11  C   UNL     1      -4.521   2.000   1.807  1.00  0.00     0.112 A 
ATOM     12  N   UNL     1      -5.356   1.188   1.101  1.00  0.00    -0.260 NA
BRANCH  10  13
ATOM     13  C   UNL     1      -5.889  -0.634  -0.546  1.00  0.00     0.102 C 
ATOM     14  C   UNL     1      -5.752  -0.407  -2.070  1.00  0.00     0.027 C 
ATOM     15  C   UNL     1      -5.568  -2.111  -0.220  1.00  0.00     0.027 C 
BRANCH  13  16
ATOM     16  C   UNL     1      -7.361  -0.339  -0.127  1.00  0.00     0.399 C 
ATOM     17  F   UNL     1      -7.696   0.976  -0.414  1.00  0.00    -0.170 F 
ATOM     18  F   UNL     1      -8.239  -1.164  -0.810  1.00  0.00    -0.170 F 
ATOM     19  F   UNL     1      -7.533  -0.551   1.231  1.00  0.00    -0.170 F 
ENDBRANCH  13  16
ENDBRANCH  10  13
ENDBRANCH   3   7
BRANCH   5  20
ATOM     20  N   UNL     1       2.354  -0.694   0.104  1.00  0.00    -0.283 N 
ATOM     21  C   UNL     1       3.640  -0.188   0.516  1.00  0.00     0.324 C 
ATOM     22  H   UNL     1       2.268  -1.671  -0.242  1.00  0.00     0.174 HD
ATOM     23  O   UNL     1       3.704   0.866   1.209  1.00  0.00    -0.248 OA
BRANCH  21  24
ATOM     24  N   UNL     1       4.858  -0.883   0.167  1.00  0.00    -0.312 N 
ATOM     25  C   UNL     1       4.909  -2.019  -0.747  1.00  0.00     0.122 C 
ATOM     26  C   UNL     1       6.149  -0.601   0.788  1.00  0.00     0.176 C 
ATOM     27  C   UNL     1       6.336  -2.552  -0.680  1.00  0.00     0.024 C 
ATOM     28  C   UNL     1       7.160  -1.524   0.100  1.00  0.00     0.037 C 
BRANCH  26  29
ATOM     29  C   UNL     1       6.548   0.853   0.638  1.00  0.00     0.240 C 
ATOM     30  N   UNL     1       6.438   1.526  -0.624  1.00  0.00    -0.368 N 
ATOM     31  O   UNL     1       6.991   1.480   1.643  1.00  0.00    -0.273 OA
ATOM     32  H   UNL     1       5.955   1.061  -1.438  1.00  0.00     0.159 HD
ATOM     33  H   UNL     1       6.795   2.508  -0.738  1.00  0.00     0.159 HD
ENDBRANCH  26  29
ENDBRANCH  21  24
ENDBRANCH   5  20
TORSDOF 6
