REMARK SMILES CCc1cc(/C(C)=N/OCc2ccc(C3CCCCC3)c(C(F)(F)F)c2)ccc1CN1CC(C(=O)O)C1
REMARK SMILES IDX 3 1 4 2 5 3 27 4 28 5 29 6 2 7 1 8 30 9 31 10 32 11 37 12
REMARK SMILES IDX 33 13 34 14 35 15 36 16 6 18 7 19 8 20 9 21 10 22 11 23
REMARK SMILES IDX 12 24 26 25 13 26 21 27 14 28 22 29 23 30 24 31 25 32 15 33
REMARK SMILES IDX 16 34 20 35 17 36 19 37 18 38
REMARK H PARENT 36 17
REMARK Flexibility Score: inf
ROOT
ATOM      1  C   UNL     1      -4.690   0.939  -0.635  1.00  0.00    -0.043 A 
ATOM      2  C   UNL     1      -3.302   0.737  -0.487  1.00  0.00     0.014 A 
ATOM      3  C   UNL     1      -2.764  -0.541  -0.249  1.00  0.00    -0.001 A 
ATOM      4  C   UNL     1      -3.635  -1.641  -0.196  1.00  0.00     0.010 A 
ATOM      5  C   UNL     1      -5.005  -1.469  -0.386  1.00  0.00     0.006 A 
ATOM      6  C   UNL     1      -5.549  -0.195  -0.627  1.00  0.00    -0.031 A 
ENDROOT
BRANCH   1   7
ATOM      7  C   UNL     1      -5.209   2.344  -0.908  1.00  0.00     0.032 C 
ATOM      8  C   UNL     1      -4.600   3.406   0.021  1.00  0.00     0.009 C 
ENDBRANCH   1   7
BRANCH   6   9
ATOM      9  C   UNL     1      -7.038  -0.089  -0.871  1.00  0.00     0.120 C 
BRANCH   9  10
ATOM     10  N   UNL     1      -7.707   0.500   0.307  1.00  0.00    -0.297 NA
ATOM     11  C   UNL     1      -7.965  -0.497   1.359  1.00  0.00     0.101 C 
ATOM     12  C   UNL     1      -9.160   0.607   0.099  1.00  0.00     0.101 C 
ATOM     13  C   UNL     1      -9.477  -0.421   1.180  1.00  0.00     0.127 C 
BRANCH  13  14
ATOM     14  C   UNL     1     -10.106  -1.685   0.658  1.00  0.00     0.309 C 
ATOM     15  O   UNL     1     -11.100  -1.621  -0.114  1.00  0.00    -0.252 OA
BRANCH  14  16
ATOM     16  O   UNL     1      -9.653  -2.929   1.100  1.00  0.00    -0.481 OA
ATOM     17  H   UNL     1     -10.082  -3.786   0.771  1.00  0.00     0.296 HD
ENDBRANCH  14  16
ENDBRANCH  13  14
ENDBRANCH   9  10
ENDBRANCH   6   9
BRANCH   3  18
ATOM     18  C   UNL     1      -1.295  -0.709  -0.075  1.00  0.00     0.084 C 
ATOM     19  C   UNL     1      -0.732  -1.938   0.600  1.00  0.00     0.071 C 
ATOM     20  N   UNL     1      -0.496   0.176  -0.594  1.00  0.00    -0.091 NA
BRANCH  20  21
ATOM     21  O   UNL     1       0.877   0.078  -0.512  1.00  0.00    -0.391 OA
BRANCH  21  22
ATOM     22  C   UNL     1       1.701   1.055  -1.130  1.00  0.00     0.299 C 
BRANCH  22  23
ATOM     23  C   UNL     1       3.145   0.745  -0.852  1.00  0.00    -0.007 A 
ATOM     24  C   UNL     1       3.898   1.566  -0.009  1.00  0.00     0.007 A 
ATOM     25  C   UNL     1       3.737  -0.392  -1.416  1.00  0.00     0.020 A 
ATOM     26  C   UNL     1       5.231   1.264   0.261  1.00  0.00     0.005 A 
ATOM     27  C   UNL     1       5.086  -0.720  -1.161  1.00  0.00     0.059 A 
ATOM     28  C   UNL     1       5.855   0.130  -0.305  1.00  0.00    -0.033 A 
BRANCH  27  29
ATOM     29  C   UNL     1       5.671  -1.971  -1.797  1.00  0.00     0.416 C 
ATOM     30  F   UNL     1       6.741  -1.629  -2.610  1.00  0.00    -0.166 F 
ATOM     31  F   UNL     1       6.095  -2.845  -0.810  1.00  0.00    -0.166 F 
ATOM     32  F   UNL     1       4.746  -2.639  -2.582  1.00  0.00    -0.166 F 
ENDBRANCH  27  29
BRANCH  28  33
ATOM     33  C   UNL     1       7.313  -0.155   0.055  1.00  0.00     0.020 C 
ATOM     34  C   UNL     1       7.458  -0.472   1.559  1.00  0.00     0.008 C 
ATOM     35  C   UNL     1       8.240   1.011  -0.352  1.00  0.00     0.008 C 
ATOM     36  C   UNL     1       8.919  -0.774   1.917  1.00  0.00     0.001 C 
ATOM     37  C   UNL     1       9.699   0.705   0.016  1.00  0.00     0.001 C 
ATOM     38  C   UNL     1       9.836   0.387   1.511  1.00  0.00     0.000 C 
ENDBRANCH  28  33
ENDBRANCH  22  23
ENDBRANCH  21  22
ENDBRANCH  20  21
ENDBRANCH   3  18
TORSDOF 11
