REMARK SMILES Cc1cc(O)c2c(=O)c3c(O)cc(O)c4c5c(O)cc(O)c6c(=O)c7c(O)cc(C)c8c1c2c(c34)c(c78)c65
REMARK SMILES IDX 1 1 2 2 32 3 31 4 29 5 30 6 28 7 26 8 25 9 37 10 36 11 34 12
REMARK SMILES IDX 33 13 6 14 4 15 3 16 7 17 8 18 9 19 35 20 15 21 13 22 12 23
REMARK SMILES IDX 10 24 16 25 17 26 19 27 20 28 22 29 23 30 24 31 38 32 5 33
REMARK SMILES IDX 27 35 11 37 14 39 21 41 18 43
REMARK H PARENT 5 34 27 36 11 38 14 40 21 42 18 44
REMARK Flexibility Score: inf
ROOT
ATOM      1  C   UNL     1       4.283   0.118   1.802  1.00  0.00     0.045 C 
ATOM      2  C   UNL     1       3.352   0.903   0.909  1.00  0.00    -0.039 A 
ATOM      3  C   UNL     1       2.162   0.364   0.342  1.00  0.00    -0.006 A 
ATOM      4  C   UNL     1       1.962  -1.028   0.122  1.00  0.00    -0.006 A 
ATOM      5  C   UNL     1       3.019  -1.930  -0.182  1.00  0.00    -0.039 A 
ATOM      6  C   UNL     1       4.329  -1.502  -0.803  1.00  0.00     0.045 C 
ATOM      7  C   UNL     1       2.793  -3.302  -0.108  1.00  0.00     0.051 A 
ATOM      8  C   UNL     1       1.515  -3.820   0.060  1.00  0.00     0.127 A 
ATOM      9  C   UNL     1       0.403  -2.937   0.169  1.00  0.00     0.073 A 
ATOM     10  C   UNL     1       0.634  -1.534   0.120  1.00  0.00     0.006 A 
ATOM     11  C   UNL     1      -0.459  -0.636   0.028  1.00  0.00     0.001 A 
ATOM     12  C   UNL     1      -0.222   0.755  -0.083  1.00  0.00     0.001 A 
ATOM     13  C   UNL     1       1.091   1.258   0.077  1.00  0.00     0.006 A 
ATOM     14  C   UNL     1       1.325   2.657   0.044  1.00  0.00     0.073 A 
ATOM     15  C   UNL     1       2.623   3.144   0.335  1.00  0.00     0.127 A 
ATOM     16  C   UNL     1       3.600   2.271   0.805  1.00  0.00     0.051 A 
ATOM     17  C   UNL     1       0.251   3.539  -0.211  1.00  0.00     0.201 A 
ATOM     18  O   UNL     1       0.457   4.783  -0.196  1.00  0.00    -0.288 OA
ATOM     19  C   UNL     1      -1.063   3.046  -0.386  1.00  0.00     0.073 A 
ATOM     20  C   UNL     1      -1.305   1.649  -0.257  1.00  0.00     0.010 A 
ATOM     21  C   UNL     1      -2.639   1.155  -0.252  1.00  0.00     0.037 A 
ATOM     22  C   UNL     1      -3.688   2.096  -0.091  1.00  0.00     0.127 A 
ATOM     23  C   UNL     1      -3.456   3.444  -0.344  1.00  0.00     0.093 A 
ATOM     24  C   UNL     1      -2.171   3.915  -0.577  1.00  0.00     0.131 A 
ATOM     25  C   UNL     1      -2.865  -0.252  -0.294  1.00  0.00     0.037 A 
ATOM     26  C   UNL     1      -4.112  -0.819  -0.663  1.00  0.00     0.127 A 
ATOM     27  C   UNL     1      -4.355  -2.173  -0.446  1.00  0.00     0.093 A 
ATOM     28  C   UNL     1      -3.333  -3.026  -0.041  1.00  0.00     0.131 A 
ATOM     29  C   UNL     1      -2.014  -2.531   0.090  1.00  0.00     0.073 A 
ATOM     30  C   UNL     1      -0.924  -3.402   0.307  1.00  0.00     0.201 A 
ATOM     31  O   UNL     1      -1.144  -4.598   0.637  1.00  0.00    -0.288 OA
ATOM     32  C   UNL     1      -1.779  -1.137  -0.054  1.00  0.00     0.010 A 
ENDROOT
BRANCH  15  33
ATOM     33  O   UNL     1       2.936   4.500   0.216  1.00  0.00    -0.507 OA
ATOM     34  H   UNL     1       3.858   4.858   0.437  1.00  0.00     0.293 HD
ENDBRANCH  15  33
BRANCH   8  35
ATOM     35  O   UNL     1       1.408  -5.214   0.007  1.00  0.00    -0.507 OA
ATOM     36  H   UNL     1       0.588  -5.715  -0.303  1.00  0.00     0.293 HD
ENDBRANCH   8  35
BRANCH  24  37
ATOM     37  O   UNL     1      -2.049   5.247  -0.984  1.00  0.00    -0.507 OA
ATOM     38  H   UNL     1      -1.257   5.601  -1.503  1.00  0.00     0.293 HD
ENDBRANCH  24  37
BRANCH  22  39
ATOM     39  O   UNL     1      -4.940   1.716   0.394  1.00  0.00    -0.507 OA
ATOM     40  H   UNL     1      -5.686   2.388   0.537  1.00  0.00     0.293 HD
ENDBRANCH  22  39
BRANCH  28  41
ATOM     41  O   UNL     1      -3.628  -4.376   0.166  1.00  0.00    -0.507 OA
ATOM     42  H   UNL     1      -4.567  -4.742   0.056  1.00  0.00     0.293 HD
ENDBRANCH  28  41
BRANCH  26  43
ATOM     43  O   UNL     1      -5.084  -0.071  -1.329  1.00  0.00    -0.507 OA
ATOM     44  H   UNL     1      -5.966  -0.476  -1.623  1.00  0.00     0.293 HD
ENDBRANCH  26  43
TORSDOF 6
