REMARK SMILES C[C@]12CC[C@H]3[C@@H](CCC4=CC(=O)CC[C@@]43C)[C@@H]1CC[C@@H]2OC(=O)CCC1CCCC1
REMARK SMILES IDX 24 1 22 2 23 3 21 4 20 5 17 6 18 7 2 8 6 9 19 10 1 11 3 12
REMARK SMILES IDX 5 13 7 14 4 15 15 16 8 17 9 18 14 19 16 20 10 21 13 22 11 23
REMARK SMILES IDX 12 24 25 25 26 26 27 27 30 28 28 29 29 30
REMARK H PARENT
REMARK Flexibility Score: inf
ROOT
ATOM      1  C   UNL     1       4.822   1.023  -0.422  1.00  0.00     0.123 C 
ENDROOT
BRANCH   1   2
ATOM      2  C   UNL     1       3.665   1.142   0.521  1.00  0.00     0.306 C 
ATOM      3  O   UNL     1       3.875   1.307   1.754  1.00  0.00    -0.252 OA
BRANCH   2   4
ATOM      4  O   UNL     1       2.362   1.041   0.023  1.00  0.00    -0.462 OA
BRANCH   4   5
ATOM      5  C   UNL     1       1.200   1.145   0.848  1.00  0.00     0.182 C 
ATOM      6  C   UNL     1      -1.133   1.497   0.970  1.00  0.00     0.002 C 
ATOM      7  C   UNL     1      -0.530   2.860   1.284  1.00  0.00     0.008 C 
ATOM      8  C   UNL     1      -0.092   0.813   0.077  1.00  0.00     0.008 C 
ATOM      9  C   UNL     1      -2.559   1.421   0.386  1.00  0.00    -0.003 C 
ATOM     10  C   UNL     1       0.983   2.589   1.356  1.00  0.00     0.046 C 
ATOM     11  C   UNL     1      -0.005   1.404  -1.368  1.00  0.00     0.015 C 
ATOM     12  C   UNL     1      -0.434  -0.691   0.017  1.00  0.00     0.011 C 
ATOM     13  C   UNL     1      -2.953  -0.089   0.242  1.00  0.00     0.002 C 
ATOM     14  C   UNL     1      -3.563   2.135   1.306  1.00  0.00     0.008 C 
ATOM     15  C   UNL     1      -1.867  -0.915  -0.523  1.00  0.00     0.005 C 
ATOM     16  C   UNL     1      -4.418  -0.288  -0.315  1.00  0.00    -0.008 C 
ATOM     17  C   UNL     1      -4.978   2.050   0.741  1.00  0.00     0.032 C 
ATOM     18  C   UNL     1      -5.375   0.616   0.479  1.00  0.00    -0.060 C 
ATOM     19  C   UNL     1      -4.826  -1.788  -0.142  1.00  0.00     0.019 C 
ATOM     20  C   UNL     1      -4.520   0.098  -1.813  1.00  0.00     0.016 C 
ATOM     21  C   UNL     1      -6.629   0.232   0.783  1.00  0.00     0.047 C 
ATOM     22  C   UNL     1      -6.318  -2.039  -0.382  1.00  0.00     0.081 C 
ATOM     23  C   UNL     1      -7.141  -1.100   0.438  1.00  0.00     0.155 C 
ATOM     24  O   UNL     1      -8.306  -1.429   0.784  1.00  0.00    -0.295 OA
ENDBRANCH   4   5
ENDBRANCH   2   4
ENDBRANCH   1   2
BRANCH   1  25
ATOM     25  C   UNL     1       5.018  -0.426  -0.897  1.00  0.00     0.015 C 
BRANCH  25  26
ATOM     26  C   UNL     1       5.525  -1.375   0.222  1.00  0.00    -0.011 C 
ATOM     27  C   UNL     1       5.408  -2.841  -0.196  1.00  0.00     0.003 C 
ATOM     28  C   UNL     1       7.017  -1.189   0.509  1.00  0.00     0.003 C 
ATOM     29  C   UNL     1       6.729  -3.202  -0.862  1.00  0.00     0.000 C 
ATOM     30  C   UNL     1       7.754  -2.169  -0.398  1.00  0.00     0.000 C 
ENDBRANCH  25  26
ENDBRANCH   1  25
TORSDOF 5
