REMARK SMILES CC(=O)O[C@H]1CC[C@H]2[C@@H]3CC[C@H]4CC(=O)CC[C@]4(C)[C@H]3CC[C@]12C
REMARK SMILES IDX 4 1 5 2 8 3 7 4 23 5 9 6 6 7 24 8 22 9 20 10 10 11 21 12
REMARK SMILES IDX 18 13 11 14 12 15 17 16 19 17 13 18 16 19 14 20 15 21 2 22
REMARK SMILES IDX 1 23 3 24
REMARK H PARENT
REMARK Flexibility Score: inf
ROOT
ATOM      1  O   UNL     1       4.360   0.348   0.602  1.00  0.00    -0.462 OA
ENDROOT
BRANCH   1   2
ATOM      2  C   UNL     1       3.247   0.908  -0.097  1.00  0.00     0.182 C 
ATOM      3  C   UNL     1       1.098   0.572  -1.021  1.00  0.00     0.002 C 
ATOM      4  C   UNL     1       2.042   0.439  -2.208  1.00  0.00     0.008 C 
ATOM      5  C   UNL     1       1.938   0.147   0.189  1.00  0.00     0.008 C 
ATOM      6  C   UNL     1      -0.279  -0.124  -1.067  1.00  0.00    -0.004 C 
ATOM      7  C   UNL     1       3.420   0.809  -1.631  1.00  0.00     0.046 C 
ATOM      8  C   UNL     1       2.230  -1.388   0.251  1.00  0.00     0.015 C 
ATOM      9  C   UNL     1       1.197   0.602   1.466  1.00  0.00     0.011 C 
ATOM     10  C   UNL     1      -1.062   0.257   0.235  1.00  0.00    -0.001 C 
ATOM     11  C   UNL     1      -1.070   0.321  -2.310  1.00  0.00     0.004 C 
ATOM     12  C   UNL     1      -0.224  -0.008   1.529  1.00  0.00     0.005 C 
ATOM     13  C   UNL     1      -2.515  -0.361   0.268  1.00  0.00    -0.026 C 
ATOM     14  C   UNL     1      -2.465  -0.304  -2.328  1.00  0.00     0.005 C 
ATOM     15  C   UNL     1      -3.255   0.055  -1.054  1.00  0.00     0.002 C 
ATOM     16  C   UNL     1      -3.306   0.225   1.493  1.00  0.00     0.015 C 
ATOM     17  C   UNL     1      -2.460  -1.913   0.412  1.00  0.00     0.012 C 
ATOM     18  C   UNL     1      -4.682  -0.527  -1.134  1.00  0.00     0.079 C 
ATOM     19  C   UNL     1      -4.826   0.427   1.292  1.00  0.00     0.076 C 
ATOM     20  C   UNL     1      -5.401  -0.403   0.179  1.00  0.00     0.133 C 
ATOM     21  O   UNL     1      -6.490  -0.938   0.321  1.00  0.00    -0.300 OA
ENDBRANCH   1   2
BRANCH   1  22
ATOM     22  C   UNL     1       5.625   0.945   0.631  1.00  0.00     0.302 C 
ATOM     23  C   UNL     1       6.740   0.266   1.350  1.00  0.00     0.139 C 
ATOM     24  O   UNL     1       5.841   2.029   0.025  1.00  0.00    -0.253 OA
ENDBRANCH   1  22
TORSDOF 2
