REMARK SMILES COc1cc(Br)c2oc(C3CCNCC3)cc2c1
REMARK SMILES IDX 3 1 18 2 17 3 7 4 8 5 9 6 16 7 5 8 6 9 4 10 2 11 1 12 10 13
REMARK SMILES IDX 11 14 15 15 12 16 14 17 13 18
REMARK H PARENT 13 19
REMARK Flexibility Score: inf
ROOT
ATOM      1  C   UNL     1       3.774   0.268   0.578  1.00  0.00     0.120 A 
ATOM      2  C   UNL     1       2.845   1.196   0.066  1.00  0.00     0.058 A 
ATOM      3  C   UNL     1       1.523   0.788  -0.087  1.00  0.00     0.025 A 
ATOM      4  C   UNL     1       1.111  -0.473   0.245  1.00  0.00     0.148 A 
ATOM      5  O   UNL     1      -0.171  -0.612   0.014  1.00  0.00    -0.460 OA
ATOM      6  C   UNL     1      -0.613   0.536  -0.468  1.00  0.00     0.108 A 
ATOM      7  C   UNL     1       0.420   1.466  -0.551  1.00  0.00     0.054 A 
ATOM      8  C   UNL     1       1.995  -1.421   0.754  1.00  0.00     0.064 A 
ATOM      9  Br  UNL     1       1.402  -3.178   1.212  1.00  0.00    -0.047 Br
ATOM     10  C   UNL     1       3.341  -1.044   0.921  1.00  0.00     0.066 A 
ENDROOT
BRANCH   1  11
ATOM     11  O   UNL     1       5.106   0.681   0.730  1.00  0.00    -0.497 OA
ATOM     12  C   UNL     1       6.150  -0.146   1.233  1.00  0.00     0.278 C 
ENDBRANCH   1  11
BRANCH   6  13
ATOM     13  C   UNL     1      -2.047   0.791  -0.844  1.00  0.00     0.058 C 
ATOM     14  C   UNL     1      -2.911   0.920   0.429  1.00  0.00     0.027 C 
ATOM     15  C   UNL     1      -2.575  -0.307  -1.799  1.00  0.00     0.027 C 
ATOM     16  C   UNL     1      -4.371   0.559   0.133  1.00  0.00     0.081 C 
ATOM     17  C   UNL     1      -3.353  -1.388  -1.035  1.00  0.00     0.081 C 
ATOM     18  N   UNL     1      -4.520  -0.842  -0.312  1.00  0.00    -0.317 NA
ATOM     19  H   UNL     1      -5.356  -0.893  -0.941  1.00  0.00     0.122 HD
ENDBRANCH   6  13
TORSDOF 2
