REMARK SMILES CC(=O)[C@@]1(C)CC[C@H]2[C@@H]3CCC4=CC(=O)CCC4=C3CC[C@@]21C
REMARK SMILES IDX 8 1 7 2 6 3 4 4 5 5 22 6 23 7 21 8 20 9 19 10 18 11 17 12
REMARK SMILES IDX 16 13 14 14 15 15 13 16 12 17 11 18 10 19 9 20 2 21 1 22
REMARK SMILES IDX 3 23
REMARK H PARENT
REMARK Flexibility Score: inf
ROOT
ATOM      1  C   UNL     1       0.811  -0.909  -0.477  1.00  0.00     0.003 C 
ATOM      2  C   UNL     1       1.671  -2.165  -0.380  1.00  0.00     0.006 C 
ATOM      3  C   UNL     1       3.117  -1.668  -0.235  1.00  0.00     0.015 C 
ATOM      4  C   UNL     1       3.073  -0.108  -0.135  1.00  0.00     0.032 C 
ATOM      5  C   UNL     1       3.417   0.461  -1.542  1.00  0.00     0.020 C 
ATOM      6  C   UNL     1       1.582   0.166   0.304  1.00  0.00    -0.017 C 
ATOM      7  C   UNL     1       1.437  -0.003   1.854  1.00  0.00     0.013 C 
ATOM      8  C   UNL     1       0.971   1.523  -0.112  1.00  0.00     0.012 C 
ATOM      9  C   UNL     1      -0.546   1.613   0.181  1.00  0.00     0.032 C 
ATOM     10  C   UNL     1      -1.360   0.321   0.007  1.00  0.00    -0.063 C 
ATOM     11  C   UNL     1      -2.726   0.359   0.037  1.00  0.00    -0.045 C 
ATOM     12  C   UNL     1      -3.486   1.619   0.447  1.00  0.00     0.044 C 
ATOM     13  C   UNL     1      -4.900   1.669  -0.139  1.00  0.00     0.085 C 
ATOM     14  C   UNL     1      -5.605   0.366   0.062  1.00  0.00     0.156 C 
ATOM     15  O   UNL     1      -6.846   0.342   0.272  1.00  0.00    -0.295 OA
ATOM     16  C   UNL     1      -4.861  -0.889  -0.087  1.00  0.00     0.051 C 
ATOM     17  C   UNL     1      -3.522  -0.900  -0.170  1.00  0.00    -0.041 C 
ATOM     18  C   UNL     1      -2.833  -2.217  -0.420  1.00  0.00     0.036 C 
ATOM     19  C   UNL     1      -1.422  -2.006  -0.959  1.00  0.00     0.013 C 
ATOM     20  C   UNL     1      -0.659  -1.044  -0.036  1.00  0.00     0.019 C 
ENDROOT
BRANCH   4  21
ATOM     21  C   UNL     1       4.111   0.432   0.870  1.00  0.00     0.136 C 
ATOM     22  C   UNL     1       4.608   1.851   0.817  1.00  0.00     0.088 C 
ATOM     23  O   UNL     1       4.542  -0.288   1.760  1.00  0.00    -0.299 OA
ENDBRANCH   4  21
TORSDOF 1
