REMARK SMILES CCOc1nc2cccc(C(=O)O)c2n1Cc1ccc(-c2ccccc2-c2nnn[nH]2)cc1
REMARK SMILES IDX 16 1 15 2 4 3 5 4 6 5 14 6 7 7 10 8 8 9 9 10 3 11 2 12 1 13
REMARK SMILES IDX 11 14 12 15 13 16 17 18 18 19 33 20 19 21 32 22 20 23 21 24
REMARK SMILES IDX 22 25 26 26 23 27 25 28 24 29 27 30 28 31 31 32 29 33 30 34
REMARK H PARENT 13 17 31 35
REMARK Flexibility Score: inf
ROOT
ATOM      1  C   UNL     1      -1.884  -0.052  -1.503  1.00  0.00     0.163 C 
ENDROOT
BRANCH   1   2
ATOM      2  N   UNL     1      -2.742  -0.180  -0.320  1.00  0.00    -0.289 N 
ATOM      3  C   UNL     1      -3.170   0.865   0.432  1.00  0.00     0.297 A 
ATOM      4  N   UNL     1      -4.035   0.518   1.416  1.00  0.00    -0.195 NA
ATOM      5  C   UNL     1      -4.141  -0.813   1.262  1.00  0.00     0.093 A 
ATOM      6  C   UNL     1      -3.350  -1.259   0.230  1.00  0.00     0.086 A 
ATOM      7  C   UNL     1      -4.961  -1.665   1.996  1.00  0.00     0.031 A 
ATOM      8  C   UNL     1      -3.311  -2.633  -0.114  1.00  0.00     0.085 A 
ATOM      9  C   UNL     1      -4.975  -3.023   1.650  1.00  0.00     0.003 A 
ATOM     10  C   UNL     1      -4.162  -3.502   0.605  1.00  0.00     0.018 A 
BRANCH   3  11
ATOM     11  O   UNL     1      -2.758   2.180   0.200  1.00  0.00    -0.465 OA
BRANCH  11  12
ATOM     12  C   UNL     1      -3.192   3.271   1.003  1.00  0.00     0.229 C 
ATOM     13  C   UNL     1      -2.565   4.558   0.492  1.00  0.00     0.049 C 
ENDBRANCH  11  12
ENDBRANCH   3  11
BRANCH   8  14
ATOM     14  C   UNL     1      -2.405  -3.220  -1.113  1.00  0.00     0.337 C 
ATOM     15  O   UNL     1      -1.167  -2.992  -1.066  1.00  0.00    -0.246 OA
BRANCH  14  16
ATOM     16  O   UNL     1      -2.908  -4.101  -2.066  1.00  0.00    -0.478 OA
ATOM     17  H   UNL     1      -2.296  -4.538  -2.744  1.00  0.00     0.297 HD
ENDBRANCH  14  16
ENDBRANCH   8  14
ENDBRANCH   1   2
BRANCH   1  18
ATOM     18  C   UNL     1      -0.448   0.219  -1.116  1.00  0.00    -0.028 A 
ATOM     19  C   UNL     1       0.131  -0.384   0.016  1.00  0.00     0.006 A 
ATOM     20  C   UNL     1       0.342   1.051  -1.925  1.00  0.00     0.006 A 
ATOM     21  C   UNL     1       1.466  -0.137   0.343  1.00  0.00     0.009 A 
ATOM     22  C   UNL     1       1.678   1.299  -1.596  1.00  0.00     0.009 A 
ATOM     23  C   UNL     1       2.251   0.700  -0.465  1.00  0.00    -0.018 A 
BRANCH  23  24
ATOM     24  C   UNL     1       3.661   0.977  -0.108  1.00  0.00    -0.007 A 
ATOM     25  C   UNL     1       4.028   2.307   0.160  1.00  0.00     0.009 A 
ATOM     26  C   UNL     1       4.629  -0.056   0.025  1.00  0.00     0.028 A 
ATOM     27  C   UNL     1       5.323   2.617   0.576  1.00  0.00     0.001 A 
ATOM     28  C   UNL     1       5.927   0.278   0.451  1.00  0.00     0.013 A 
ATOM     29  C   UNL     1       6.269   1.604   0.725  1.00  0.00     0.001 A 
BRANCH  26  30
ATOM     30  C   UNL     1       4.331  -1.469  -0.317  1.00  0.00     0.180 A 
ATOM     31  N   UNL     1       3.450  -1.866  -1.255  1.00  0.00    -0.109 NA
ATOM     32  N   UNL     1       4.926  -2.539   0.237  1.00  0.00    -0.239 N 
ATOM     33  N   UNL     1       3.514  -3.190  -1.251  1.00  0.00    -0.024 NA
ATOM     34  N   UNL     1       4.400  -3.596  -0.354  1.00  0.00    -0.048 NA
ATOM     35  H   UNL     1       5.645  -2.568   0.993  1.00  0.00     0.194 HD
ENDBRANCH  26  30
ENDBRANCH  23  24
ENDBRANCH   1  18
TORSDOF 8
