REMARK SMILES C#CCN1C(=O)CN=C(c2ccccc2)c2cc(Cl)ccc21
REMARK SMILES IDX 19 1 18 2 17 3 16 4 22 5 21 6 20 7 9 8 8 9 10 10 11 11 15 12
REMARK SMILES IDX 12 13 14 14 13 15 7 16 4 18 3 19 2 20 1 21 5 22 6 23
REMARK H PARENT
REMARK Flexibility Score: 90.00
ROOT
ATOM      1  Cl  UNL     1       0.324   3.767  -3.154  1.00  0.00    -0.084 Cl
ATOM      2  C   UNL     1      -0.395   2.371  -2.373  1.00  0.00     0.041 A 
ATOM      3  C   UNL     1       0.412   1.462  -1.685  1.00  0.00     0.033 A 
ATOM      4  C   UNL     1      -0.150   0.336  -1.055  1.00  0.00     0.026 A 
ATOM      5  C   UNL     1      -1.551   0.130  -1.128  1.00  0.00     0.054 A 
ATOM      6  C   UNL     1      -2.347   1.052  -1.828  1.00  0.00     0.028 A 
ATOM      7  C   UNL     1      -1.773   2.165  -2.444  1.00  0.00     0.023 A 
ENDROOT
BRANCH   4   8
ATOM      8  C   UNL     1       0.752  -0.608  -0.333  1.00  0.00     0.075 C 
ATOM      9  N   UNL     1       0.653  -1.897  -0.503  1.00  0.00    -0.274 NA
BRANCH   8  10
ATOM     10  C   UNL     1       1.805  -0.093   0.579  1.00  0.00     0.000 A 
ATOM     11  C   UNL     1       1.615   1.109   1.290  1.00  0.00     0.010 A 
ATOM     12  C   UNL     1       2.998  -0.815   0.773  1.00  0.00     0.010 A 
ATOM     13  C   UNL     1       2.603   1.582   2.158  1.00  0.00     0.001 A 
ATOM     14  C   UNL     1       3.983  -0.336   1.642  1.00  0.00     0.001 A 
ATOM     15  C   UNL     1       3.786   0.861   2.333  1.00  0.00     0.000 A 
ENDBRANCH   8  10
BRANCH   9  16
ATOM     16  C   UNL     1      -0.344  -2.556  -1.339  1.00  0.00     0.243 CG0
ATOM     17  G   UNL     1      -1.698  -2.339  -0.741  1.00  0.00     0.000 G0
ENDBRANCH   9  16
ENDBRANCH   4   8
BRANCH   5  18
ATOM     18  N   UNL     1      -2.181  -1.004  -0.495  1.00  0.00    -0.299 N 
BRANCH  18  19
ATOM     19  C   UNL     1      -3.204  -0.775   0.533  1.00  0.00     0.215 C 
BRANCH  19  20
ATOM     20  C   UNL     1      -2.571  -0.723   1.856  1.00  0.00    -0.085 C 
ATOM     21  C   UNL     1      -2.044  -0.678   2.939  1.00  0.00     0.006 C 
ENDBRANCH  19  20
ENDBRANCH  18  19
BRANCH  18  22
ATOM     22  C   UNL     1      -1.698  -2.339  -0.741  1.00  0.00     0.249 CG0
ATOM     23  O   UNL     1      -2.396  -3.339  -0.418  1.00  0.00    -0.272 OA
ATOM     24  G   UNL     1      -0.344  -2.556  -1.339  1.00  0.00     0.000 G0
ENDBRANCH  18  22
ENDBRANCH   5  18
TORSDOF 3
