REMARK SMILES CC(C)C[C@H](NC(=O)[C@@H]1CSSC[C@@H]2NC(=O)[C@H](CC(C)C)NC(=O)[C@H](CCC(=O)O)NC(=O)[C@@H](NC(=O)[C@H](CCC(=O)O)NC(=O)[C@H](CC(=O)O)NC(=O)[C@@H](N)CC(N)=O)CSSC[C@H](NC(=O)[C@H](C)NC(=O)[C@H](C(C)C)NC(=O)[C@H](CC(N)=O)NC(=O)[C@H](C(C)C)NC2=O)C(=O)N[C@@H]([C@@H](C)O)C(=O)NCC(=O)N1)C(=O)O
REMARK SMILES IDX 24 1 25 2 23 3 18 5 16 6 15 7 17 9 14 10 13 11 12 12 11 13
REMARK SMILES IDX 10 14 9 15 110 16 108 17 109 19 7 21 8 22 6 23 5 25 4 26
REMARK SMILES IDX 2 27 1 28 3 29 111 30 112 31 113 32 95 34 94 35 96 36 90 38
REMARK SMILES IDX 88 39 87 40 89 41 82 43 80 44 79 45 81 46 75 48 73 49 72 50
REMARK SMILES IDX 74 51 70 53 71 54 76 56 77 57 78 58 83 59 84 60 85 61 86 62
REMARK SMILES IDX 91 65 92 66 93 67 19 68 20 69 21 70 22 71 26 72 32 73 33 74
REMARK SMILES IDX 34 76 35 77 62 78 63 79 64 80 65 81 66 82 97 83 99 84 98 85
REMARK SMILES IDX 100 87 104 88 106 89 105 90 107 92 101 94 102 95 103 96
REMARK SMILES IDX 67 98 68 99 69 101 36 103 37 104 38 106 39 107 40 108 41 109
REMARK SMILES IDX 42 110 43 111 44 112 45 114 46 115 47 117 48 118 49 119
REMARK SMILES IDX 50 120 51 121 52 122 53 124 54 125 55 127 56 128 57 129
REMARK SMILES IDX 58 132 59 133 60 134 61 135 27 138 28 139 29 140 30 141
REMARK SMILES IDX 31 142
REMARK H PARENT 23 4 15 8 110 18 6 24 113 33 94 37 87 42 79 47 72 52 85 63
REMARK H PARENT 85 64 32 75 99 86 106 91 103 97 67 100 36 105 44 113 45 116
REMARK H PARENT 52 123 53 126 57 130 57 131 60 136 60 137 31 143
REMARK Flexibility Score: 140.00
ROOT
ATOM      1  C   UNL     1       1.745  -0.666  -3.482  1.00  0.00     0.243 C 
ATOM      2  O   UNL     1       1.975  -1.779  -4.030  1.00  0.00    -0.273 OA
ATOM      3  N   UNL     1       0.422  -0.106  -3.597  1.00  0.00    -0.343 N 
ATOM      4  H   UNL     1      -0.220  -0.576  -4.274  1.00  0.00     0.164 HD
ENDROOT
BRANCH   3   5
ATOM      5  C   UNL     1      -0.173   0.855  -2.658  1.00  0.00     0.171 C 
BRANCH   5   6
ATOM      6  C   UNL     1      -0.994   0.132  -1.621  1.00  0.00     0.243 C 
ATOM      7  N   UNL     1      -1.535  -1.178  -1.866  1.00  0.00    -0.342 N 
ATOM      8  H   UNL     1      -0.888  -1.897  -2.261  1.00  0.00     0.164 HD
ATOM      9  O   UNL     1      -1.229   0.707  -0.524  1.00  0.00    -0.273 OA
BRANCH   7  10
ATOM     10  C   UNL     1      -2.974  -1.471  -1.968  1.00  0.00     0.182 C 
BRANCH  10  11
ATOM     11  C   UNL     1      -3.849  -0.454  -1.211  1.00  0.00     0.116 C 
BRANCH  11  12
ATOM     12  S   UNL     1      -5.600  -0.982  -1.195  1.00  0.00    -0.091 SA
BRANCH  12  13
ATOM     13  S   UNL     1      -6.375   0.899  -1.867  1.00  0.00    -0.091 SA
BRANCH  13  14
ATOM     14  C   UNL     1      -6.486   1.652  -0.196  1.00  0.00     0.116 C 
BRANCH  14  15
ATOM     15  C   UNL     1      -5.642   2.945  -0.122  1.00  0.00     0.182 C 
BRANCH  15  16
ATOM     16  N   UNL     1      -4.280   2.669   0.368  1.00  0.00    -0.342 N 
ATOM     17  C   UNL     1      -3.888   2.198   1.675  1.00  0.00     0.240 CG0
ATOM     18  H   UNL     1      -3.502   2.845  -0.309  1.00  0.00     0.164 HD
ATOM     19  O   UNL     1      -2.660   2.043   1.902  1.00  0.00    -0.273 OA
ATOM     20  G   UNL     1      -4.863   1.861   2.781  1.00  0.00     0.000 G0
ENDBRANCH  15  16
BRANCH  15  21
ATOM     21  C   UNL     1      -6.314   4.054   0.657  1.00  0.00     0.244 C 
ATOM     22  O   UNL     1      -5.777   4.529   1.695  1.00  0.00    -0.273 OA
ATOM     23  N   UNL     1      -7.542   4.606   0.176  1.00  0.00    -0.341 N 
ATOM     24  H   UNL     1      -7.828   4.385  -0.802  1.00  0.00     0.164 HD
BRANCH  23  25
ATOM     25  C   UNL     1      -8.402   5.459   1.010  1.00  0.00     0.192 C 
BRANCH  25  26
ATOM     26  C   UNL     1      -9.539   6.056   0.150  1.00  0.00     0.040 C 
BRANCH  26  27
ATOM     27  C   UNL     1     -10.552   6.934   0.925  1.00  0.00    -0.015 C 
ATOM     28  C   UNL     1     -11.747   7.264   0.022  1.00  0.00     0.007 C 
ATOM     29  C   UNL     1      -9.915   8.230   1.447  1.00  0.00     0.007 C 
ENDBRANCH  26  27
ENDBRANCH  25  26
BRANCH  25  30
ATOM     30  C   UNL     1      -8.950   4.648   2.147  1.00  0.00     0.326 C 
ATOM     31  O   UNL     1      -8.791   5.037   3.334  1.00  0.00    -0.250 OA
BRANCH  30  32
ATOM     32  O   UNL     1      -9.648   3.470   1.895  1.00  0.00    -0.480 OA
ATOM     33  H   UNL     1     -10.035   2.921   2.657  1.00  0.00     0.296 HD
ENDBRANCH  30  32
ENDBRANCH  25  30
ENDBRANCH  23  25
ENDBRANCH  15  21
ENDBRANCH  14  15
ENDBRANCH  13  14
ENDBRANCH  12  13
ENDBRANCH  11  12
ENDBRANCH  10  11
BRANCH  10  34
ATOM     34  C   UNL     1      -3.356  -1.550  -3.432  1.00  0.00     0.244 C 
ATOM     35  N   UNL     1      -3.400  -2.808  -4.126  1.00  0.00    -0.342 N 
ATOM     36  O   UNL     1      -3.567  -0.490  -4.075  1.00  0.00    -0.273 OA
ATOM     37  H   UNL     1      -3.072  -2.790  -5.120  1.00  0.00     0.164 HD
BRANCH  35  38
ATOM     38  C   UNL     1      -4.308  -3.885  -3.708  1.00  0.00     0.174 C 
BRANCH  38  39
ATOM     39  C   UNL     1      -3.853  -5.216  -4.279  1.00  0.00     0.243 C 
ATOM     40  N   UNL     1      -4.089  -6.467  -3.607  1.00  0.00    -0.342 N 
ATOM     41  O   UNL     1      -3.330  -5.244  -5.428  1.00  0.00    -0.273 OA
ATOM     42  H   UNL     1      -3.998  -7.331  -4.190  1.00  0.00     0.164 HD
BRANCH  40  43
ATOM     43  C   UNL     1      -4.069  -6.633  -2.146  1.00  0.00     0.180 C 
BRANCH  43  44
ATOM     44  C   UNL     1      -2.639  -6.595  -1.661  1.00  0.00     0.243 C 
ATOM     45  N   UNL     1      -2.251  -6.002  -0.410  1.00  0.00    -0.342 N 
ATOM     46  O   UNL     1      -1.740  -7.107  -2.383  1.00  0.00    -0.273 OA
ATOM     47  H   UNL     1      -1.226  -5.883  -0.248  1.00  0.00     0.164 HD
BRANCH  45  48
ATOM     48  C   UNL     1      -3.133  -5.815   0.752  1.00  0.00     0.174 C 
BRANCH  48  49
ATOM     49  C   UNL     1      -3.134  -4.357   1.164  1.00  0.00     0.243 C 
ATOM     50  N   UNL     1      -1.960  -3.539   0.996  1.00  0.00    -0.343 N 
ATOM     51  O   UNL     1      -4.152  -3.876   1.739  1.00  0.00    -0.273 OA
ATOM     52  H   UNL     1      -1.441  -3.605   0.089  1.00  0.00     0.164 HD
BRANCH  50  53
ATOM     53  C   UNL     1      -1.443  -2.693   2.088  1.00  0.00     0.168 CG1
ATOM     54  C   UNL     1      -1.052  -3.584   3.276  1.00  0.00     0.041 C 
ATOM     55  G   UNL     1      -0.239  -1.882   1.636  1.00  0.00     0.000 G1
ENDBRANCH  50  53
ENDBRANCH  48  49
BRANCH  48  56
ATOM     56  C   UNL     1      -2.675  -6.723   1.933  1.00  0.00     0.015 C 
ATOM     57  C   UNL     1      -3.645  -6.659   3.125  1.00  0.00     0.010 C 
ATOM     58  C   UNL     1      -2.521  -8.193   1.505  1.00  0.00     0.010 C 
ENDBRANCH  48  56
ENDBRANCH  45  48
ENDBRANCH  43  44
BRANCH  43  59
ATOM     59  C   UNL     1      -4.713  -7.978  -1.758  1.00  0.00     0.134 C 
BRANCH  59  60
ATOM     60  C   UNL     1      -6.148  -8.042  -2.193  1.00  0.00     0.220 C 
ATOM     61  N   UNL     1      -6.551  -8.918  -3.249  1.00  0.00    -0.370 N 
ATOM     62  O   UNL     1      -7.007  -7.311  -1.630  1.00  0.00    -0.275 OA
ATOM     63  H   UNL     1      -7.544  -8.937  -3.569  1.00  0.00     0.159 HD
ATOM     64  H   UNL     1      -5.856  -9.531  -3.733  1.00  0.00     0.159 HD
ENDBRANCH  59  60
ENDBRANCH  43  59
ENDBRANCH  40  43
ENDBRANCH  38  39
BRANCH  38  65
ATOM     65  C   UNL     1      -5.771  -3.543  -4.113  1.00  0.00     0.015 C 
ATOM     66  C   UNL     1      -6.006  -3.570  -5.632  1.00  0.00     0.010 C 
ATOM     67  C   UNL     1      -6.784  -4.448  -3.399  1.00  0.00     0.010 C 
ENDBRANCH  38  65
ENDBRANCH  35  38
ENDBRANCH  10  34
ENDBRANCH   7  10
ENDBRANCH   5   6
BRANCH   5  68
ATOM     68  C   UNL     1      -1.073   1.868  -3.412  1.00  0.00     0.038 C 
BRANCH  68  69
ATOM     69  C   UNL     1      -0.347   2.852  -4.364  1.00  0.00    -0.015 C 
ATOM     70  C   UNL     1       0.682   3.729  -3.640  1.00  0.00     0.007 C 
ATOM     71  C   UNL     1       0.272   2.167  -5.590  1.00  0.00     0.007 C 
ENDBRANCH  68  69
ENDBRANCH   5  68
ENDBRANCH   3   5
BRANCH   1  72
ATOM     72  C   UNL     1       2.865   0.020  -2.729  1.00  0.00     0.172 C 
BRANCH  72  73
ATOM     73  N   UNL     1       3.035  -0.633  -1.431  1.00  0.00    -0.342 N 
ATOM     74  C   UNL     1       3.339   0.122  -0.252  1.00  0.00     0.244 C 
ATOM     75  H   UNL     1       3.265  -1.654  -1.424  1.00  0.00     0.164 HD
ATOM     76  O   UNL     1       2.713   1.189  -0.005  1.00  0.00    -0.273 OA
BRANCH  74  77
ATOM     77  C   UNL     1       4.409  -0.371   0.688  1.00  0.00     0.182 C 
BRANCH  77  78
ATOM     78  C   UNL     1       3.813  -1.212   1.832  1.00  0.00     0.116 C 
BRANCH  78  79
ATOM     79  S   UNL     1       3.309  -0.224   3.288  1.00  0.00    -0.091 SA
BRANCH  79  80
ATOM     80  S   UNL     1       2.143  -1.800   4.129  1.00  0.00    -0.091 SA
BRANCH  80  81
ATOM     81  C   UNL     1       0.807  -0.690   4.709  1.00  0.00     0.116 C 
BRANCH  81  82
ATOM     82  C   UNL     1      -0.226  -0.236   3.636  1.00  0.00     0.182 C 
BRANCH  82  83
ATOM     83  C   UNL     1      -0.382   1.265   3.713  1.00  0.00     0.244 C 
ATOM     84  N   UNL     1      -1.335   1.892   4.583  1.00  0.00    -0.340 N 
ATOM     85  O   UNL     1       0.442   1.998   3.097  1.00  0.00    -0.273 OA
ATOM     86  H   UNL     1      -1.110   2.860   4.912  1.00  0.00     0.164 HD
BRANCH  84  87
ATOM     87  C   UNL     1      -2.642   1.329   4.943  1.00  0.00     0.200 C 
BRANCH  87  88
ATOM     88  C   UNL     1      -3.669   2.445   5.005  1.00  0.00     0.245 C 
ATOM     89  N   UNL     1      -4.623   2.694   3.961  1.00  0.00    -0.345 N 
ATOM     90  O   UNL     1      -3.637   3.249   5.974  1.00  0.00    -0.273 OA
ATOM     91  H   UNL     1      -5.245   3.527   4.083  1.00  0.00     0.164 HD
BRANCH  89  92
ATOM     92  C   UNL     1      -4.863   1.861   2.781  1.00  0.00     0.216 CG0
ATOM     93  G   UNL     1      -3.888   2.198   1.675  1.00  0.00     0.000 G0
ENDBRANCH  89  92
ENDBRANCH  87  88
BRANCH  87  94
ATOM     94  C   UNL     1      -2.567   0.496   6.252  1.00  0.00     0.143 C 
ATOM     95  C   UNL     1      -1.883   1.223   7.425  1.00  0.00     0.041 C 
BRANCH  94  96
ATOM     96  O   UNL     1      -3.864   0.105   6.626  1.00  0.00    -0.391 OA
ATOM     97  H   UNL     1      -3.763  -0.654   7.260  1.00  0.00     0.211 HD
ENDBRANCH  94  96
ENDBRANCH  87  94
ENDBRANCH  84  87
ENDBRANCH  82  83
BRANCH  82  98
ATOM     98  N   UNL     1       0.143  -0.643   2.269  1.00  0.00    -0.342 N 
ATOM     99  C   UNL     1      -0.239  -1.882   1.636  1.00  0.00     0.242 CG1
ATOM    100  H   UNL     1       0.881  -0.090   1.779  1.00  0.00     0.164 HD
ATOM    101  O   UNL     1       0.496  -2.330   0.720  1.00  0.00    -0.273 OA
ATOM    102  G   UNL     1      -1.443  -2.693   2.088  1.00  0.00     0.000 G1
ENDBRANCH  82  98
ENDBRANCH  81  82
ENDBRANCH  80  81
ENDBRANCH  79  80
ENDBRANCH  78  79
ENDBRANCH  77  78
BRANCH  77 103
ATOM    103  N   UNL     1       5.201   0.761   1.185  1.00  0.00    -0.342 N 
ATOM    104  C   UNL     1       6.615   0.877   0.986  1.00  0.00     0.243 C 
ATOM    105  H   UNL     1       4.707   1.556   1.645  1.00  0.00     0.164 HD
ATOM    106  O   UNL     1       7.275  -0.092   0.525  1.00  0.00    -0.273 OA
BRANCH 104 107
ATOM    107  C   UNL     1       7.292   2.192   1.293  1.00  0.00     0.172 C 
BRANCH 107 108
ATOM    108  C   UNL     1       6.961   3.275   0.241  1.00  0.00     0.047 C 
BRANCH 108 109
ATOM    109  C   UNL     1       7.218   2.881  -1.225  1.00  0.00     0.125 C 
BRANCH 109 110
ATOM    110  C   UNL     1       8.672   2.744  -1.551  1.00  0.00     0.303 C 
ATOM    111  O   UNL     1       9.435   3.746  -1.477  1.00  0.00    -0.252 OA
BRANCH 110 112
ATOM    112  O   UNL     1       9.179   1.510  -1.944  1.00  0.00    -0.481 OA
ATOM    113  H   UNL     1      10.165   1.402  -2.150  1.00  0.00     0.296 HD
ENDBRANCH 110 112
ENDBRANCH 109 110
ENDBRANCH 108 109
ENDBRANCH 107 108
BRANCH 107 114
ATOM    114  N   UNL     1       8.747   2.032   1.437  1.00  0.00    -0.342 N 
ATOM    115  C   UNL     1       9.518   2.830   2.349  1.00  0.00     0.243 C 
ATOM    116  H   UNL     1       9.241   1.433   0.747  1.00  0.00     0.164 HD
ATOM    117  O   UNL     1       8.944   3.412   3.311  1.00  0.00    -0.273 OA
BRANCH 115 118
ATOM    118  C   UNL     1      11.000   3.036   2.167  1.00  0.00     0.182 C 
BRANCH 118 119
ATOM    119  C   UNL     1      11.273   4.473   1.691  1.00  0.00     0.157 C 
BRANCH 119 120
ATOM    120  C   UNL     1      12.741   4.737   1.550  1.00  0.00     0.305 C 
ATOM    121  O   UNL     1      13.249   4.930   0.411  1.00  0.00    -0.252 OA
BRANCH 120 122
ATOM    122  O   UNL     1      13.552   4.765   2.680  1.00  0.00    -0.481 OA
ATOM    123  H   UNL     1      14.551   4.919   2.602  1.00  0.00     0.296 HD
ENDBRANCH 120 122
ENDBRANCH 119 120
ENDBRANCH 118 119
BRANCH 118 124
ATOM    124  N   UNL     1      11.556   2.065   1.218  1.00  0.00    -0.342 N 
ATOM    125  C   UNL     1      11.896   0.727   1.602  1.00  0.00     0.238 C 
ATOM    126  H   UNL     1      11.562   2.310   0.202  1.00  0.00     0.164 HD
ATOM    127  O   UNL     1      11.827   0.376   2.812  1.00  0.00    -0.273 OA
BRANCH 125 128
ATOM    128  C   UNL     1      12.301  -0.294   0.560  1.00  0.00     0.150 C 
BRANCH 128 129
ATOM    129  N   UNL     1      11.174  -0.559  -0.327  1.00  0.00    -0.319 NA
ATOM    130  H   UNL     1      10.379  -0.943   0.239  1.00  0.00     0.119 HD
ATOM    131  H   UNL     1      11.449  -1.313  -1.003  1.00  0.00     0.119 HD
ENDBRANCH 128 129
BRANCH 128 132
ATOM    132  C   UNL     1      13.516   0.185  -0.263  1.00  0.00     0.128 C 
BRANCH 132 133
ATOM    133  C   UNL     1      14.701   0.483   0.610  1.00  0.00     0.219 C 
ATOM    134  N   UNL     1      15.546  -0.572   1.064  1.00  0.00    -0.370 N 
ATOM    135  O   UNL     1      14.934   1.668   0.968  1.00  0.00    -0.275 OA
ATOM    136  H   UNL     1      16.375  -0.362   1.666  1.00  0.00     0.159 HD
ATOM    137  H   UNL     1      15.315  -1.572   0.852  1.00  0.00     0.159 HD
ENDBRANCH 132 133
ENDBRANCH 128 132
ENDBRANCH 125 128
ENDBRANCH 118 124
ENDBRANCH 115 118
ENDBRANCH 107 114
ENDBRANCH 104 107
ENDBRANCH  77 103
ENDBRANCH  74  77
ENDBRANCH  72  73
BRANCH  72 138
ATOM    138  C   UNL     1       4.207  -0.036  -3.495  1.00  0.00     0.047 C 
BRANCH 138 139
ATOM    139  C   UNL     1       4.200   0.781  -4.804  1.00  0.00     0.125 C 
BRANCH 139 140
ATOM    140  C   UNL     1       4.075   2.258  -4.571  1.00  0.00     0.303 C 
ATOM    141  O   UNL     1       3.582   2.990  -5.470  1.00  0.00    -0.252 OA
BRANCH 140 142
ATOM    142  O   UNL     1       4.558   2.838  -3.401  1.00  0.00    -0.481 OA
ATOM    143  H   UNL     1       4.485   3.834  -3.240  1.00  0.00     0.296 HD
ENDBRANCH 140 142
ENDBRANCH 139 140
ENDBRANCH 138 139
ENDBRANCH  72 138
ENDBRANCH   1  72
TORSDOF 34
