REMARK SMILES CC(C)(C)NC[C@H](O)c1ccc(O)c(CO)c1
REMARK SMILES IDX 7 1 6 2 5 3 2 5 1 6 3 7 4 8 8 9 9 11 17 12 10 13 14 14 11 15
REMARK SMILES IDX 12 16 15 17 16 18 13 20
REMARK H PARENT 5 4 8 10 16 19 13 21
REMARK Flexibility Score: inf
ROOT
ATOM      1  C   UNL     1       0.193   0.622  -1.049  1.00  0.00     0.158 C 
ENDROOT
BRANCH   1   2
ATOM      2  C   UNL     1      -1.037   0.075  -0.299  1.00  0.00     0.118 C 
BRANCH   2   3
ATOM      3  N   UNL     1      -2.162   1.020  -0.424  1.00  0.00    -0.309 NA
ATOM      4  H   UNL     1      -2.511   0.958  -1.411  1.00  0.00     0.123 HD
BRANCH   3   5
ATOM      5  C   UNL     1      -3.298   0.780   0.502  1.00  0.00     0.010 C 
ATOM      6  C   UNL     1      -2.889   1.097   1.957  1.00  0.00     0.027 C 
ATOM      7  C   UNL     1      -3.826  -0.670   0.404  1.00  0.00     0.027 C 
ATOM      8  C   UNL     1      -4.440   1.743   0.112  1.00  0.00     0.027 C 
ENDBRANCH   3   5
ENDBRANCH   2   3
ENDBRANCH   1   2
BRANCH   1   9
ATOM      9  O   UNL     1      -0.060   0.780  -2.424  1.00  0.00    -0.387 OA
ATOM     10  H   UNL     1      -0.410  -0.079  -2.775  1.00  0.00     0.211 HD
ENDBRANCH   1   9
BRANCH   1  11
ATOM     11  C   UNL     1       1.412  -0.255  -0.827  1.00  0.00    -0.018 A 
ATOM     12  C   UNL     1       2.522   0.245  -0.126  1.00  0.00     0.016 A 
ATOM     13  C   UNL     1       1.443  -1.576  -1.300  1.00  0.00     0.010 A 
ATOM     14  C   UNL     1       3.666  -0.552   0.090  1.00  0.00     0.020 A 
ATOM     15  C   UNL     1       2.557  -2.382  -1.072  1.00  0.00     0.047 A 
ATOM     16  C   UNL     1       3.662  -1.890  -0.372  1.00  0.00     0.121 A 
BRANCH  14  17
ATOM     17  C   UNL     1       4.863  -0.006   0.844  1.00  0.00     0.195 C 
BRANCH  17  18
ATOM     18  O   UNL     1       4.784   1.380   1.049  1.00  0.00    -0.392 OA
ATOM     19  H   UNL     1       5.011   1.808   0.182  1.00  0.00     0.211 HD
ENDBRANCH  17  18
ENDBRANCH  14  17
BRANCH  16  20
ATOM     20  O   UNL     1       4.733  -2.759  -0.148  1.00  0.00    -0.508 OA
ATOM     21  H   UNL     1       5.551  -2.507   0.391  1.00  0.00     0.293 HD
ENDBRANCH  16  20
ENDBRANCH   1  11
TORSDOF 8
