REMARK SMILES C[C@]12CC[C@@H]3c4ccc(OC(=O)c5ccccc5)cc4CC[C@H]3[C@@H]1CC[C@@H]2O
REMARK SMILES IDX 10 1 9 2 27 3 26 4 2 5 25 6 24 7 3 8 1 9 23 10 4 11 22 12
REMARK SMILES IDX 5 13 21 14 6 15 20 16 7 17 19 18 8 19 28 20 11 22 12 23
REMARK SMILES IDX 13 24 14 25 18 26 15 27 17 28 16 29
REMARK H PARENT 28 21
REMARK Flexibility Score: inf
ROOT
ATOM      1  O   UNL     1      -4.208  -0.665  -0.426  1.00  0.00    -0.423 OA
ENDROOT
BRANCH   1   2
ATOM      2  C   UNL     1      -2.819  -0.700  -0.236  1.00  0.00     0.131 A 
ATOM      3  C   UNL     1       5.819  -0.387   0.184  1.00  0.00     0.120 C 
ATOM      4  C   UNL     1       5.929   1.010   0.838  1.00  0.00     0.032 C 
ATOM      5  C   UNL     1       4.372  -0.449  -0.344  1.00  0.00    -0.003 C 
ATOM      6  C   UNL     1       4.489   1.488   1.100  1.00  0.00     0.007 C 
ATOM      7  C   UNL     1       3.634   0.264   0.797  1.00  0.00     0.001 C 
ATOM      8  C   UNL     1       3.789  -1.873  -0.469  1.00  0.00     0.010 C 
ATOM      9  C   UNL     1       4.284   0.285  -1.722  1.00  0.00     0.014 C 
ATOM     10  C   UNL     1       2.135   0.442   0.493  1.00  0.00     0.000 C 
ATOM     11  C   UNL     1       2.255  -1.841  -0.697  1.00  0.00     0.009 C 
ATOM     12  C   UNL     1       1.404   1.205   1.605  1.00  0.00     0.009 C 
ATOM     13  C   UNL     1       1.493  -0.971   0.350  1.00  0.00     0.023 C 
ATOM     14  C   UNL     1      -0.042   1.479   1.183  1.00  0.00     0.036 C 
ATOM     15  C   UNL     1      -0.010  -0.852   0.092  1.00  0.00    -0.041 A 
ATOM     16  C   UNL     1      -0.729   0.284   0.555  1.00  0.00    -0.041 A 
ATOM     17  C   UNL     1      -0.741  -1.928  -0.455  1.00  0.00     0.008 A 
ATOM     18  C   UNL     1      -2.119   0.356   0.367  1.00  0.00     0.051 A 
ATOM     19  C   UNL     1      -2.124  -1.845  -0.620  1.00  0.00     0.047 A 
BRANCH   3  20
ATOM     20  O   UNL     1       6.769  -0.558  -0.837  1.00  0.00    -0.393 OA
ATOM     21  H   UNL     1       7.653  -0.628  -0.390  1.00  0.00     0.210 HD
ENDBRANCH   3  20
ENDBRANCH   1   2
BRANCH   1  22
ATOM     22  C   UNL     1      -4.964   0.492  -0.661  1.00  0.00     0.343 C 
ATOM     23  O   UNL     1      -4.401   1.556  -1.038  1.00  0.00    -0.246 OA
BRANCH  22  24
ATOM     24  C   UNL     1      -6.437   0.445  -0.522  1.00  0.00     0.060 A 
ATOM     25  C   UNL     1      -7.225   1.571  -0.826  1.00  0.00     0.015 A 
ATOM     26  C   UNL     1      -7.071  -0.731  -0.080  1.00  0.00     0.015 A 
ATOM     27  C   UNL     1      -8.615   1.519  -0.691  1.00  0.00     0.001 A 
ATOM     28  C   UNL     1      -8.462  -0.777   0.054  1.00  0.00     0.001 A 
ATOM     29  C   UNL     1      -9.233   0.347  -0.251  1.00  0.00     0.000 A 
ENDBRANCH  22  24
ENDBRANCH   1  22
TORSDOF 4
