REMARK SMILES CC(C)[C@@]1(NC(=O)[C@@H]2C[C@@H]3c4cccc5[nH]cc(c45)C[C@H]3N(C)C2)O[C@@]2(O)[C@@H]3CCCN3C(=O)[C@H](Cc3ccccc3)N2C1=O
REMARK SMILES IDX 28 1 29 2 30 3 31 4 32 5 33 6 34 7 35 8 43 9 44 10 45 11
REMARK SMILES IDX 4 12 25 13 26 14 27 15 36 17 37 18 38 19 42 20 39 21 41 22
REMARK SMILES IDX 40 23 5 24 6 25 7 27 8 28 24 29 9 30 22 31 10 32 23 33 21 34
REMARK SMILES IDX 11 35 20 36 12 37 19 38 18 39 13 40 15 41 17 42 14 43 16 44
REMARK SMILES IDX 2 46 1 47 3 48
REMARK H PARENT 27 16 5 26 16 45
REMARK Flexibility Score: inf
ROOT
ATOM      1  C   UNL     1       3.690  -1.377   2.311  1.00  0.00     0.168 C 
ATOM      2  C   UNL     1       3.571  -1.540   3.827  1.00  0.00     0.035 C 
ATOM      3  C   UNL     1       5.008  -1.479   4.351  1.00  0.00     0.024 C 
ATOM      4  C   UNL     1       5.828  -0.779   3.270  1.00  0.00     0.120 C 
ATOM      5  N   UNL     1       4.987  -0.768   2.088  1.00  0.00    -0.330 N 
ATOM      6  C   UNL     1       5.353  -0.166   0.836  1.00  0.00     0.246 C 
ATOM      7  O   UNL     1       6.565   0.087   0.595  1.00  0.00    -0.272 OA
ATOM      8  C   UNL     1       4.291   0.159  -0.196  1.00  0.00     0.184 C 
ATOM      9  N   UNL     1       2.985  -0.336   0.255  1.00  0.00    -0.273 N 
ATOM     10  C   UNL     1       2.014  -0.961  -0.530  1.00  0.00     0.281 C 
ATOM     11  O   UNL     1       2.029  -0.966  -1.790  1.00  0.00    -0.269 OA
ATOM     12  C   UNL     1       0.982  -1.582   0.336  1.00  0.00     0.228 C 
ATOM     13  O   UNL     1       1.343  -1.224   1.667  1.00  0.00    -0.294 OA
ATOM     14  C   UNL     1       2.594  -0.530   1.641  1.00  0.00     0.276 C 
ENDROOT
BRANCH  14  15
ATOM     15  O   UNL     1       2.478   0.733   2.259  1.00  0.00    -0.347 OA
ATOM     16  H   UNL     1       1.734   0.692   2.912  1.00  0.00     0.216 HD
ENDBRANCH  14  15
BRANCH   8  17
ATOM     17  C   UNL     1       4.189   1.677  -0.441  1.00  0.00     0.071 C 
BRANCH  17  18
ATOM     18  C   UNL     1       5.360   2.212  -1.226  1.00  0.00    -0.045 A 
ATOM     19  C   UNL     1       5.466   1.943  -2.603  1.00  0.00     0.004 A 
ATOM     20  C   UNL     1       6.352   2.981  -0.596  1.00  0.00     0.004 A 
ATOM     21  C   UNL     1       6.548   2.438  -3.337  1.00  0.00     0.000 A 
ATOM     22  C   UNL     1       7.430   3.480  -1.333  1.00  0.00     0.000 A 
ATOM     23  C   UNL     1       7.526   3.212  -2.702  1.00  0.00     0.000 A 
ENDBRANCH  17  18
ENDBRANCH   8  17
BRANCH  12  24
ATOM     24  N   UNL     1      -0.368  -1.057   0.055  1.00  0.00    -0.320 N 
ATOM     25  C   UNL     1      -0.660   0.254  -0.470  1.00  0.00     0.227 C 
ATOM     26  H   UNL     1      -1.178  -1.611   0.411  1.00  0.00     0.166 HD
ATOM     27  O   UNL     1       0.210   1.167  -0.432  1.00  0.00    -0.275 OA
BRANCH  25  28
ATOM     28  C   UNL     1      -2.030   0.579  -1.015  1.00  0.00     0.093 C 
ATOM     29  C   UNL     1      -2.582  -0.558  -1.895  1.00  0.00     0.098 C 
ATOM     30  C   UNL     1      -2.999   0.894   0.132  1.00  0.00     0.024 C 
ATOM     31  N   UNL     1      -3.913  -0.209  -2.439  1.00  0.00    -0.302 NA
ATOM     32  C   UNL     1      -4.397   1.203  -0.429  1.00  0.00     0.038 C 
ATOM     33  C   UNL     1      -4.341  -1.291  -3.348  1.00  0.00     0.105 C 
ATOM     34  C   UNL     1      -4.882   0.002  -1.326  1.00  0.00     0.068 C 
ATOM     35  C   UNL     1      -5.410   1.531   0.664  1.00  0.00    -0.034 A 
ATOM     36  C   UNL     1      -6.345   0.233  -1.847  1.00  0.00     0.057 C 
ATOM     37  C   UNL     1      -5.151   2.257   1.854  1.00  0.00     0.005 A 
ATOM     38  C   UNL     1      -6.734   1.253   0.396  1.00  0.00     0.006 A 
ATOM     39  C   UNL     1      -7.226   0.651  -0.712  1.00  0.00    -0.021 A 
ATOM     40  C   UNL     1      -6.219   2.616   2.716  1.00  0.00     0.002 A 
ATOM     41  C   UNL     1      -7.772   1.602   1.195  1.00  0.00     0.046 A 
ATOM     42  C   UNL     1      -8.609   0.663  -0.563  1.00  0.00     0.087 A 
ATOM     43  C   UNL     1      -7.553   2.289   2.387  1.00  0.00     0.027 A 
ATOM     44  N   UNL     1      -8.938   1.242   0.624  1.00  0.00    -0.361 N 
ATOM     45  H   UNL     1      -9.899   1.400   0.998  1.00  0.00     0.166 HD
ENDBRANCH  25  28
ENDBRANCH  12  24
BRANCH  12  46
ATOM     46  C   UNL     1       1.024  -3.140   0.182  1.00  0.00     0.046 C 
ATOM     47  C   UNL     1       0.424  -3.869   1.399  1.00  0.00     0.013 C 
ATOM     48  C   UNL     1       0.338  -3.632  -1.106  1.00  0.00     0.013 C 
ENDBRANCH  12  46
TORSDOF 6
