REMARK SMILES NC(=O)c1ccc(I)c([N+](=O)[O-])c1
REMARK SMILES IDX 4 1 13 2 9 3 7 4 8 5 6 6 5 7 2 8 1 9 3 12 10 13 12 14 11 15
REMARK H PARENT 1 10 1 11
REMARK Flexibility Score: inf
ROOT
ATOM      1  C   UNL     1      -0.772  -0.224  -0.185  1.00  0.00     0.046 A 
ATOM      2  C   UNL     1       0.452  -0.914  -0.130  1.00  0.00     0.100 A 
ATOM      3  C   UNL     1       1.663  -0.232   0.083  1.00  0.00     0.283 A 
ATOM      4  C   UNL     1       1.639   1.170   0.260  1.00  0.00     0.091 A 
ATOM      5  I   UNL     1       3.364   2.318   0.722  1.00  0.00    -0.037 I 
ATOM      6  C   UNL     1       0.423   1.857   0.193  1.00  0.00     0.023 A 
ATOM      7  C   UNL     1      -0.771   1.172  -0.034  1.00  0.00     0.015 A 
ENDROOT
BRANCH   1   8
ATOM      8  C   UNL     1      -2.033  -0.968  -0.426  1.00  0.00     0.248 C 
ATOM      9  N   UNL     1      -3.302  -0.438  -0.032  1.00  0.00    -0.366 N 
ATOM     10  H   UNL     1      -4.177  -0.956  -0.267  1.00  0.00     0.159 HD
ATOM     11  H   UNL     1      -3.380   0.414   0.565  1.00  0.00     0.159 HD
ATOM     12  O   UNL     1      -1.993  -2.101  -0.977  1.00  0.00    -0.270 OA
ENDBRANCH   1   8
BRANCH   3  13
ATOM     13  N   UNL     1       2.890  -0.979   0.120  1.00  0.00     0.063 N 
ATOM     14  O   UNL     1       2.886  -2.287   0.547  1.00  0.00    -0.258 OA
ATOM     15  O   UNL     1       3.928  -0.521  -0.399  1.00  0.00    -0.258 OA
ENDBRANCH   3  13
TORSDOF 2
