REMARK SMILES Oc1ccc(Cl)cc1
REMARK SMILES IDX 2 1 3 2 4 3 5 4 6 5 7 6 8 7 1 8
REMARK H PARENT 1 9
REMARK Flexibility Score: inf
ROOT
ATOM      1  C   UNL     1      -1.127  -0.332   0.035  1.00  0.00     0.115 A 
ATOM      2  C   UNL     1      -0.695   0.962   0.363  1.00  0.00     0.047 A 
ATOM      3  C   UNL     1       0.664   1.284   0.298  1.00  0.00     0.024 A 
ATOM      4  C   UNL     1       1.596   0.317  -0.094  1.00  0.00     0.041 A 
ATOM      5  Cl  UNL     1       3.301   0.722  -0.175  1.00  0.00    -0.084 Cl
ATOM      6  C   UNL     1       1.167  -0.974  -0.421  1.00  0.00     0.024 A 
ATOM      7  C   UNL     1      -0.193  -1.298  -0.357  1.00  0.00     0.047 A 
ENDROOT
BRANCH   1   8
ATOM      8  O   UNL     1      -2.478  -0.667   0.095  1.00  0.00    -0.508 OA
ATOM      9  H   UNL     1      -3.179   0.010   0.375  1.00  0.00     0.293 HD
ENDBRANCH   1   8
TORSDOF 1
