REMARK SMILES CN(CC(=O)O)C(=N)NP(=O)(O)O
REMARK SMILES IDX 1 1 2 2 3 3 4 4 5 5 6 6 7 8 8 9 9 10 10 13 11 14 12 15 13 17
REMARK H PARENT 6 7 8 11 9 12 12 16 13 18
REMARK Flexibility Score: inf
ROOT
ATOM      1  C   UNL     1       2.140  -1.563  -0.118  1.00  0.00     0.147 C 
ATOM      2  N   UNL     1       0.997  -0.709  -0.462  1.00  0.00    -0.335 N 
ENDROOT
BRANCH   2   3
ATOM      3  C   UNL     1       1.124   0.220  -1.593  1.00  0.00     0.241 C 
BRANCH   3   4
ATOM      4  C   UNL     1       1.683   1.533  -1.140  1.00  0.00     0.323 C 
ATOM      5  O   UNL     1       1.141   2.609  -1.509  1.00  0.00    -0.250 OA
BRANCH   4   6
ATOM      6  O   UNL     1       2.825   1.569  -0.345  1.00  0.00    -0.480 OA
ATOM      7  H   UNL     1       3.222   2.451  -0.045  1.00  0.00     0.296 HD
ENDBRANCH   4   6
ENDBRANCH   3   4
ENDBRANCH   2   3
BRANCH   2   8
ATOM      8  C   UNL     1      -0.221  -0.758   0.323  1.00  0.00     0.200 C 
ATOM      9  N   UNL     1      -0.513  -1.812   1.024  1.00  0.00    -0.269 NA
ATOM     10  N   UNL     1      -1.121   0.362   0.338  1.00  0.00    -0.263 N 
ATOM     11  H   UNL     1       0.081  -2.667   1.061  1.00  0.00     0.191 HD
ATOM     12  H   UNL     1      -0.851   1.267  -0.105  1.00  0.00     0.175 HD
BRANCH  10  13
ATOM     13  P   UNL     1      -2.700   0.287   1.105  1.00  0.00     0.429 P 
ATOM     14  O   UNL     1      -2.534  -0.003   2.581  1.00  0.00    -0.236 OA
BRANCH  13  15
ATOM     15  O   UNL     1      -3.615  -0.941   0.387  1.00  0.00    -0.308 OA
ATOM     16  H   UNL     1      -4.523  -0.838   0.770  1.00  0.00     0.223 HD
ENDBRANCH  13  15
BRANCH  13  17
ATOM     17  O   UNL     1      -3.493   1.768   0.908  1.00  0.00    -0.308 OA
ATOM     18  H   UNL     1      -2.910   2.430   1.359  1.00  0.00     0.223 HD
ENDBRANCH  13  17
ENDBRANCH  10  13
ENDBRANCH   2   8
TORSDOF 7
