REMARK SMILES CNC(C)Cc1ccccc1OC
REMARK SMILES IDX 5 1 3 2 4 3 2 4 1 5 6 7 7 8 11 9 8 10 10 11 9 12 12 13 13 14
REMARK H PARENT 2 6
REMARK Flexibility Score: inf
ROOT
ATOM      1  C   UNL     1      -0.626   0.672   0.719  1.00  0.00     0.058 C 
ENDROOT
BRANCH   1   2
ATOM      2  C   UNL     1      -1.753  -0.116   0.013  1.00  0.00     0.054 C 
ATOM      3  C   UNL     1      -1.498  -0.175  -1.504  1.00  0.00     0.024 C 
BRANCH   2   4
ATOM      4  N   UNL     1      -3.053   0.534   0.284  1.00  0.00    -0.317 NA
ATOM      5  C   UNL     1      -3.655   0.040   1.527  1.00  0.00     0.101 C 
ATOM      6  H   UNL     1      -3.733   0.304  -0.479  1.00  0.00     0.122 HD
ENDBRANCH   2   4
ENDBRANCH   1   2
BRANCH   1   7
ATOM      7  C   UNL     1       0.701  -0.051   0.662  1.00  0.00    -0.004 A 
ATOM      8  C   UNL     1       0.933  -1.124   1.541  1.00  0.00     0.007 A 
ATOM      9  C   UNL     1       1.696   0.310  -0.274  1.00  0.00     0.122 A 
ATOM     10  C   UNL     1       2.139  -1.824   1.502  1.00  0.00     0.001 A 
ATOM     11  C   UNL     1       2.910  -0.407  -0.300  1.00  0.00     0.047 A 
ATOM     12  C   UNL     1       3.126  -1.466   0.584  1.00  0.00     0.004 A 
BRANCH   9  13
ATOM     13  O   UNL     1       1.448   1.373  -1.159  1.00  0.00    -0.496 OA
ATOM     14  C   UNL     1       2.353   1.818  -2.163  1.00  0.00     0.278 C 
ENDBRANCH   9  13
ENDBRANCH   1   7
TORSDOF 4
