REMARK SMILES CCCCCCC(=O)O[C@H]1CC[C@H]2[C@@H]3CCC4=CC(=O)CC[C@]4(C)[C@H]3CC[C@]12C
REMARK SMILES IDX 6 1 7 2 8 3 9 4 10 5 13 6 12 7 28 8 14 9 11 10 29 11 27 12
REMARK SMILES IDX 25 13 15 14 26 15 23 16 16 17 17 18 22 19 24 20 18 21 21 22
REMARK SMILES IDX 19 23 20 24 5 25 4 26 3 27 2 28 1 29
REMARK H PARENT
REMARK Flexibility Score: inf
ROOT
ATOM      1  C   UNL     1       4.150   0.690   0.443  1.00  0.00     0.123 C 
ENDROOT
BRANCH   1   2
ATOM      2  C   UNL     1       2.861   0.457  -0.278  1.00  0.00     0.306 C 
ATOM      3  O   UNL     1       2.386   1.360  -1.020  1.00  0.00    -0.252 OA
BRANCH   2   4
ATOM      4  O   UNL     1       2.228  -0.785  -0.165  1.00  0.00    -0.462 OA
BRANCH   4   5
ATOM      5  C   UNL     1       0.960  -1.082  -0.755  1.00  0.00     0.182 C 
ATOM      6  C   UNL     1      -1.336  -1.548  -0.444  1.00  0.00     0.002 C 
ATOM      7  C   UNL     1      -0.684  -2.919  -0.548  1.00  0.00     0.008 C 
ATOM      8  C   UNL     1      -0.235  -0.636   0.117  1.00  0.00     0.008 C 
ATOM      9  C   UNL     1      -2.668  -1.406   0.318  1.00  0.00    -0.003 C 
ATOM     10  C   UNL     1       0.780  -2.608  -0.903  1.00  0.00     0.046 C 
ATOM     11  C   UNL     1       0.098  -0.889   1.623  1.00  0.00     0.015 C 
ATOM     12  C   UNL     1      -0.681   0.828  -0.087  1.00  0.00     0.011 C 
ATOM     13  C   UNL     1      -3.156   0.086   0.170  1.00  0.00     0.002 C 
ATOM     14  C   UNL     1      -3.729  -2.396  -0.222  1.00  0.00     0.008 C 
ATOM     15  C   UNL     1      -2.049   1.104   0.588  1.00  0.00     0.005 C 
ATOM     16  C   UNL     1      -4.554   0.317   0.863  1.00  0.00    -0.008 C 
ATOM     17  C   UNL     1      -5.088  -2.189   0.455  1.00  0.00     0.032 C 
ATOM     18  C   UNL     1      -5.495  -0.747   0.281  1.00  0.00    -0.060 C 
ATOM     19  C   UNL     1      -5.131   1.751   0.618  1.00  0.00     0.019 C 
ATOM     20  C   UNL     1      -4.468   0.146   2.404  1.00  0.00     0.016 C 
ATOM     21  C   UNL     1      -6.417  -0.454  -0.656  1.00  0.00     0.047 C 
ATOM     22  C   UNL     1      -5.608   1.977  -0.815  1.00  0.00     0.081 C 
ATOM     23  C   UNL     1      -6.581   0.906  -1.188  1.00  0.00     0.155 C 
ATOM     24  O   UNL     1      -7.495   1.148  -2.020  1.00  0.00    -0.295 OA
ENDBRANCH   4   5
ENDBRANCH   2   4
ENDBRANCH   1   2
BRANCH   1  25
ATOM     25  C   UNL     1       5.319   0.097  -0.353  1.00  0.00     0.012 C 
BRANCH  25  26
ATOM     26  C   UNL     1       6.658   0.179   0.403  1.00  0.00     0.001 C 
BRANCH  26  27
ATOM     27  C   UNL     1       7.142   1.608   0.722  1.00  0.00    -0.000 C 
BRANCH  27  28
ATOM     28  C   UNL     1       7.301   2.528  -0.501  1.00  0.00    -0.003 C 
ATOM     29  C   UNL     1       8.331   2.013  -1.506  1.00  0.00     0.004 C 
ENDBRANCH  27  28
ENDBRANCH  26  27
ENDBRANCH  25  26
ENDBRANCH   1  25
TORSDOF 7
