REMARK SMILES CCCCOc1ccc(CC(=O)NO)cc1
REMARK SMILES IDX 6 1 7 2 8 3 9 4 15 5 16 6 5 7 4 8 3 9 2 10 1 11 10 12 11 13
REMARK SMILES IDX 12 14 13 15 14 17
REMARK H PARENT 13 16 14 18
REMARK Flexibility Score: inf
ROOT
ATOM      1  C   UNL     1      -0.393   0.401   0.455  1.00  0.00     0.119 A 
ATOM      2  C   UNL     1       0.369  -0.039   1.544  1.00  0.00     0.047 A 
ATOM      3  C   UNL     1       1.671  -0.512   1.357  1.00  0.00     0.008 A 
ATOM      4  C   UNL     1       2.230  -0.557   0.071  1.00  0.00    -0.038 A 
ATOM      5  C   UNL     1       1.476  -0.101  -1.021  1.00  0.00     0.008 A 
ATOM      6  C   UNL     1       0.174   0.372  -0.834  1.00  0.00     0.047 A 
ENDROOT
BRANCH   1   7
ATOM      7  O   UNL     1      -1.695   0.864   0.704  1.00  0.00    -0.494 OA
BRANCH   7   8
ATOM      8  C   UNL     1      -2.661   1.206  -0.291  1.00  0.00     0.229 C 
BRANCH   8   9
ATOM      9  C   UNL     1      -3.233  -0.044  -0.976  1.00  0.00     0.041 C 
BRANCH   9  10
ATOM     10  C   UNL     1      -3.817  -1.071   0.010  1.00  0.00     0.000 C 
ATOM     11  C   UNL     1      -5.071  -0.563   0.720  1.00  0.00     0.004 C 
ENDBRANCH   9  10
ENDBRANCH   8   9
ENDBRANCH   7   8
ENDBRANCH   1   7
BRANCH   4  12
ATOM     12  C   UNL     1       3.642  -1.035  -0.125  1.00  0.00     0.137 C 
BRANCH  12  13
ATOM     13  C   UNL     1       4.600   0.103   0.052  1.00  0.00     0.247 C 
ATOM     14  O   UNL     1       5.123   0.310   1.180  1.00  0.00    -0.272 OA
ATOM     15  N   UNL     1       4.889   0.980  -1.040  1.00  0.00    -0.238 N 
ATOM     16  H   UNL     1       4.434   0.830  -1.968  1.00  0.00     0.198 HD
BRANCH  15  17
ATOM     17  O   UNL     1       5.728   2.031  -0.877  1.00  0.00    -0.289 OA
ATOM     18  H   UNL     1       6.623   1.682  -1.123  1.00  0.00     0.246 HD
ENDBRANCH  15  17
ENDBRANCH  12  13
ENDBRANCH   4  12
TORSDOF 7
