REMARK SMILES CCSc1cc(OC)c(CC(C)N)cc1OC
REMARK SMILES IDX 4 1 5 2 6 3 9 4 14 5 15 6 3 7 2 8 1 9 16 10 17 11 7 12 8 13
REMARK SMILES IDX 10 14 11 15 12 16 13 17
REMARK H PARENT 13 18 13 19
REMARK Flexibility Score: inf
ROOT
ATOM      1  C   UNL     1       1.301  -0.649   1.466  1.00  0.00     0.053 A 
ATOM      2  C   UNL     1       0.301   0.203   1.946  1.00  0.00     0.065 A 
ATOM      3  C   UNL     1      -0.948   0.276   1.303  1.00  0.00     0.123 A 
ATOM      4  C   UNL     1      -1.191  -0.532   0.175  1.00  0.00    -0.001 A 
ATOM      5  C   UNL     1      -0.187  -1.394  -0.294  1.00  0.00     0.055 A 
ATOM      6  C   UNL     1       1.062  -1.463   0.349  1.00  0.00     0.132 A 
ENDROOT
BRANCH   1   7
ATOM      7  S   UNL     1       2.887  -0.708   2.315  1.00  0.00    -0.123 SA
BRANCH   7   8
ATOM      8  C   UNL     1       3.595   0.744   1.459  1.00  0.00     0.072 C 
ATOM      9  C   UNL     1       4.069   0.386   0.055  1.00  0.00     0.016 C 
ENDBRANCH   7   8
ENDBRANCH   1   7
BRANCH   6  10
ATOM     10  O   UNL     1       2.082  -2.322  -0.092  1.00  0.00    -0.496 OA
ATOM     11  C   UNL     1       1.986  -3.172  -1.229  1.00  0.00     0.278 C 
ENDBRANCH   6  10
BRANCH   3  12
ATOM     12  O   UNL     1      -1.963   1.136   1.756  1.00  0.00    -0.496 OA
ATOM     13  C   UNL     1      -1.843   2.014   2.870  1.00  0.00     0.278 C 
ENDBRANCH   3  12
BRANCH   4  14
ATOM     14  C   UNL     1      -2.512  -0.456  -0.558  1.00  0.00     0.058 C 
BRANCH  14  15
ATOM     15  C   UNL     1      -2.594   0.775  -1.485  1.00  0.00     0.052 C 
ATOM     16  C   UNL     1      -1.583   0.676  -2.636  1.00  0.00     0.024 C 
BRANCH  15  17
ATOM     17  N   UNL     1      -3.947   0.887  -2.033  1.00  0.00    -0.328 NA
ATOM     18  H   UNL     1      -4.614   1.031  -1.240  1.00  0.00     0.119 HD
ATOM     19  H   UNL     1      -4.002   1.758  -2.609  1.00  0.00     0.119 HD
ENDBRANCH  15  17
ENDBRANCH  14  15
ENDBRANCH   4  14
TORSDOF 7
