REMARK SMILES CC(=O)Oc1ccc2c(c1)CC[C@@H]1[C@@H]2CC[C@]2(C)[C@@H](O)CC[C@@H]12
REMARK SMILES IDX 23 1 22 2 21 3 19 4 17 5 18 6 16 7 15 8 14 9 8 10 7 11 6 12
REMARK SMILES IDX 5 13 10 14 9 15 11 16 12 17 13 18 20 19 4 21 2 22 1 23 3 24
REMARK H PARENT 20 20
REMARK Flexibility Score: inf
ROOT
ATOM      1  C   UNL     1      -2.421   0.365   0.545  1.00  0.00     0.001 C 
ATOM      2  C   UNL     1      -3.270   0.330   1.809  1.00  0.00     0.007 C 
ATOM      3  C   UNL     1      -4.706   0.143   1.288  1.00  0.00     0.032 C 
ATOM      4  C   UNL     1      -4.595  -0.145  -0.225  1.00  0.00     0.120 C 
ATOM      5  C   UNL     1      -3.131  -0.590  -0.424  1.00  0.00    -0.003 C 
ATOM      6  C   UNL     1      -2.988  -2.102  -0.053  1.00  0.00     0.014 C 
ATOM      7  C   UNL     1      -2.563  -0.338  -1.837  1.00  0.00     0.010 C 
ATOM      8  C   UNL     1      -1.023  -0.513  -1.871  1.00  0.00     0.009 C 
ATOM      9  C   UNL     1      -0.282   0.310  -0.771  1.00  0.00     0.023 C 
ATOM     10  C   UNL     1       1.230   0.082  -0.724  1.00  0.00    -0.041 A 
ATOM     11  C   UNL     1       1.962  -0.196  -1.898  1.00  0.00     0.008 A 
ATOM     12  C   UNL     1       3.352  -0.317  -1.865  1.00  0.00     0.047 A 
ATOM     13  C   UNL     1       4.055  -0.127  -0.677  1.00  0.00     0.131 A 
ATOM     14  C   UNL     1       3.347   0.165   0.499  1.00  0.00     0.051 A 
ATOM     15  C   UNL     1       1.949   0.300   0.483  1.00  0.00    -0.041 A 
ATOM     16  C   UNL     1       1.255   0.579   1.799  1.00  0.00     0.036 C 
ATOM     17  C   UNL     1      -0.209   0.999   1.644  1.00  0.00     0.009 C 
ATOM     18  C   UNL     1      -0.911   0.081   0.637  1.00  0.00     0.000 C 
ENDROOT
BRANCH   4  19
ATOM     19  O   UNL     1      -5.526  -1.121  -0.618  1.00  0.00    -0.393 OA
ATOM     20  H   UNL     1      -5.522  -1.127  -1.610  1.00  0.00     0.210 HD
ENDBRANCH   4  19
BRANCH  13  21
ATOM     21  O   UNL     1       5.451  -0.273  -0.696  1.00  0.00    -0.427 OA
BRANCH  21  22
ATOM     22  C   UNL     1       6.345   0.375   0.166  1.00  0.00     0.308 C 
ATOM     23  C   UNL     1       7.763  -0.082   0.223  1.00  0.00     0.139 C 
ATOM     24  O   UNL     1       5.996   1.397   0.817  1.00  0.00    -0.252 OA
ENDBRANCH  21  22
ENDBRANCH  13  21
TORSDOF 3
