REMARK SMILES C[C@]12CC[C@@H]3c4ccc(O)cc4CC[C@H]3[C@@H]1CC[C@@H]2OC(=O)CCC1CCCC1
REMARK SMILES IDX 21 1 22 2 20 3 19 4 18 5 2 6 17 7 16 8 3 9 1 10 15 11 4 12
REMARK SMILES IDX 14 13 5 14 13 15 6 16 12 17 7 18 11 19 8 20 9 21 10 22 23 24
REMARK SMILES IDX 24 25 25 26 26 27 29 28 27 29 28 30
REMARK H PARENT 10 23
REMARK Flexibility Score: inf
ROOT
ATOM      1  C   UNL     1       2.562  -0.819   1.609  1.00  0.00     0.306 C 
ATOM      2  O   UNL     1       2.193  -1.959   1.218  1.00  0.00    -0.252 OA
ENDROOT
BRANCH   1   3
ATOM      3  O   UNL     1       1.962   0.359   1.134  1.00  0.00    -0.462 OA
BRANCH   3   4
ATOM      4  C   UNL     1       1.016   0.518   0.063  1.00  0.00     0.182 C 
ATOM      5  C   UNL     1       1.270  -0.332  -1.206  1.00  0.00     0.046 C 
ATOM      6  C   UNL     1      -0.465   0.281   0.433  1.00  0.00     0.008 C 
ATOM      7  C   UNL     1      -0.122  -0.662  -1.778  1.00  0.00     0.008 C 
ATOM      8  C   UNL     1      -1.076   0.219  -0.975  1.00  0.00     0.002 C 
ATOM      9  C   UNL     1      -1.139   1.449   1.187  1.00  0.00     0.011 C 
ATOM     10  C   UNL     1      -0.630  -1.038   1.247  1.00  0.00     0.015 C 
ATOM     11  C   UNL     1      -2.579  -0.116  -0.940  1.00  0.00     0.001 C 
ATOM     12  C   UNL     1      -2.683   1.292   1.224  1.00  0.00     0.009 C 
ATOM     13  C   UNL     1      -3.178  -0.233  -2.347  1.00  0.00     0.009 C 
ATOM     14  C   UNL     1      -3.317   1.026  -0.178  1.00  0.00     0.023 C 
ATOM     15  C   UNL     1      -4.632  -0.703  -2.257  1.00  0.00     0.036 C 
ATOM     16  C   UNL     1      -4.822   0.757  -0.146  1.00  0.00    -0.041 A 
ATOM     17  C   UNL     1      -5.435   0.006  -1.188  1.00  0.00    -0.041 A 
ATOM     18  C   UNL     1      -5.654   1.370   0.816  1.00  0.00     0.008 A 
ATOM     19  C   UNL     1      -6.828  -0.169  -1.195  1.00  0.00     0.050 A 
ATOM     20  C   UNL     1      -7.037   1.191   0.788  1.00  0.00     0.046 A 
ATOM     21  C   UNL     1      -7.627   0.421  -0.217  1.00  0.00     0.115 A 
BRANCH  21  22
ATOM     22  O   UNL     1      -9.008   0.233  -0.250  1.00  0.00    -0.508 OA
ATOM     23  H   UNL     1      -9.616   0.638   0.452  1.00  0.00     0.293 HD
ENDBRANCH  21  22
ENDBRANCH   3   4
ENDBRANCH   1   3
BRANCH   1  24
ATOM     24  C   UNL     1       3.670  -0.711   2.608  1.00  0.00     0.123 C 
BRANCH  24  25
ATOM     25  C   UNL     1       4.882   0.053   2.047  1.00  0.00     0.015 C 
BRANCH  25  26
ATOM     26  C   UNL     1       5.704  -0.765   1.025  1.00  0.00    -0.011 C 
ATOM     27  C   UNL     1       7.042  -0.102   0.719  1.00  0.00     0.003 C 
ATOM     28  C   UNL     1       5.025  -0.914  -0.340  1.00  0.00     0.003 C 
ATOM     29  C   UNL     1       7.442  -0.626  -0.649  1.00  0.00     0.000 C 
ATOM     30  C   UNL     1       6.142  -0.944  -1.381  1.00  0.00     0.000 C 
ENDBRANCH  25  26
ENDBRANCH  24  25
ENDBRANCH   1  24
TORSDOF 6
