REMARK SMILES COc1ccc2c3c([nH]c2c1)C(C)=NCC3
REMARK SMILES IDX 3 1 11 2 10 3 6 4 5 5 4 6 7 7 8 8 9 9 12 10 13 11 14 12
REMARK SMILES IDX 15 13 16 14 2 16 1 17
REMARK H PARENT 9 15
REMARK Flexibility Score: inf
ROOT
ATOM      1  C   UNL     1       2.979  -0.291   0.108  1.00  0.00     0.120 A 
ATOM      2  C   UNL     1       2.025   0.743  -0.061  1.00  0.00     0.073 A 
ATOM      3  C   UNL     1       0.677   0.393  -0.101  1.00  0.00     0.050 A 
ATOM      4  C   UNL     1       0.270  -0.916   0.022  1.00  0.00     0.004 A 
ATOM      5  C   UNL     1       1.176  -1.955   0.204  1.00  0.00     0.014 A 
ATOM      6  C   UNL     1       2.544  -1.632   0.239  1.00  0.00     0.047 A 
ATOM      7  C   UNL     1      -1.106  -0.903  -0.029  1.00  0.00    -0.011 A 
ATOM      8  C   UNL     1      -1.463   0.418  -0.154  1.00  0.00     0.064 A 
ATOM      9  N   UNL     1      -0.379   1.226  -0.205  1.00  0.00    -0.353 N 
ATOM     10  C   UNL     1      -2.876   0.813  -0.104  1.00  0.00     0.055 C 
ATOM     11  C   UNL     1      -3.273   2.242   0.087  1.00  0.00     0.068 C 
ATOM     12  N   UNL     1      -3.783  -0.126  -0.101  1.00  0.00    -0.288 NA
ATOM     13  C   UNL     1      -3.482  -1.554  -0.332  1.00  0.00     0.147 C 
ATOM     14  C   UNL     1      -2.109  -1.978   0.245  1.00  0.00     0.062 C 
ATOM     15  H   UNL     1      -0.361   2.269  -0.268  1.00  0.00     0.167 HD
ENDROOT
BRANCH   1  16
ATOM     16  O   UNL     1       4.357  -0.035   0.154  1.00  0.00    -0.497 OA
ATOM     17  C   UNL     1       4.937   1.260   0.037  1.00  0.00     0.278 C 
ENDBRANCH   1  16
TORSDOF 1
