REMARK SMILES CCCCCCCCCCC(=O)O[C@H]1CC[C@H]2[C@@H]3CCC4=CC(=O)CC[C@]4(C)[C@H]3CC[C@]12C
REMARK SMILES IDX 7 1 6 2 5 3 4 4 3 5 2 6 1 7 8 8 9 9 10 10 11 11 12 12 13 13
REMARK SMILES IDX 14 14 15 15 32 16 16 17 17 18 31 19 33 20 18 21 30 22 19 23
REMARK SMILES IDX 29 24 20 25 27 26 21 27 26 28 28 29 22 30 25 31 23 32 24 33
REMARK H PARENT
REMARK Flexibility Score: inf
ROOT
ATOM      1  C   UNL     1       5.831  -0.750  -0.119  1.00  0.00     0.000 C 
ENDROOT
BRANCH   1   2
ATOM      2  C   UNL     1       7.167  -1.090   0.555  1.00  0.00     0.000 C 
BRANCH   2   3
ATOM      3  C   UNL     1       8.225  -1.480  -0.488  1.00  0.00    -0.000 C 
BRANCH   3   4
ATOM      4  C   UNL     1       9.564  -1.897   0.145  1.00  0.00    -0.000 C 
BRANCH   4   5
ATOM      5  C   UNL     1      10.293  -0.783   0.921  1.00  0.00    -0.000 C 
BRANCH   5   6
ATOM      6  C   UNL     1      10.626   0.477   0.101  1.00  0.00    -0.003 C 
ATOM      7  C   UNL     1      11.554   0.192  -1.077  1.00  0.00     0.004 C 
ENDBRANCH   5   6
ENDBRANCH   4   5
ENDBRANCH   3   4
ENDBRANCH   2   3
ENDBRANCH   1   2
BRANCH   1   8
ATOM      8  C   UNL     1       4.765  -0.368   0.917  1.00  0.00     0.001 C 
BRANCH   8   9
ATOM      9  C   UNL     1       3.485   0.115   0.228  1.00  0.00     0.012 C 
BRANCH   9  10
ATOM     10  C   UNL     1       2.410   0.502   1.251  1.00  0.00     0.123 C 
BRANCH  10  11
ATOM     11  C   UNL     1       1.218   1.086   0.558  1.00  0.00     0.306 C 
ATOM     12  O   UNL     1       1.344   2.152  -0.109  1.00  0.00    -0.252 OA
BRANCH  11  13
ATOM     13  O   UNL     1      -0.024   0.451   0.656  1.00  0.00    -0.462 OA
BRANCH  13  14
ATOM     14  C   UNL     1      -1.145   0.829  -0.148  1.00  0.00     0.182 C 
ATOM     15  C   UNL     1      -1.002   0.298  -1.593  1.00  0.00     0.046 C 
ATOM     16  C   UNL     1      -2.471   0.228   0.357  1.00  0.00     0.008 C 
ATOM     17  C   UNL     1      -2.398  -0.177  -2.030  1.00  0.00     0.008 C 
ATOM     18  C   UNL     1      -3.315   0.328  -0.922  1.00  0.00     0.002 C 
ATOM     19  C   UNL     1      -3.172   1.052   1.459  1.00  0.00     0.011 C 
ATOM     20  C   UNL     1      -2.230  -1.233   0.854  1.00  0.00     0.015 C 
ATOM     21  C   UNL     1      -4.717  -0.289  -0.758  1.00  0.00    -0.003 C 
ATOM     22  C   UNL     1      -4.626   0.572   1.690  1.00  0.00     0.005 C 
ATOM     23  C   UNL     1      -5.501  -0.241  -2.092  1.00  0.00     0.008 C 
ATOM     24  C   UNL     1      -5.464   0.516   0.374  1.00  0.00     0.002 C 
ATOM     25  C   UNL     1      -6.943  -0.733  -1.917  1.00  0.00     0.032 C 
ATOM     26  C   UNL     1      -6.951   0.026   0.562  1.00  0.00    -0.008 C 
ATOM     27  C   UNL     1      -7.594   0.085  -0.830  1.00  0.00    -0.060 C 
ATOM     28  C   UNL     1      -7.761   0.902   1.575  1.00  0.00     0.019 C 
ATOM     29  C   UNL     1      -7.012  -1.428   1.103  1.00  0.00     0.016 C 
ATOM     30  C   UNL     1      -8.427   1.079  -1.195  1.00  0.00     0.047 C 
ATOM     31  C   UNL     1      -8.095   2.295   1.042  1.00  0.00     0.081 C 
ATOM     32  C   UNL     1      -8.783   2.169  -0.278  1.00  0.00     0.155 C 
ATOM     33  O   UNL     1      -9.612   3.047  -0.641  1.00  0.00    -0.295 OA
ENDBRANCH  13  14
ENDBRANCH  11  13
ENDBRANCH  10  11
ENDBRANCH   9  10
ENDBRANCH   8   9
ENDBRANCH   1   8
TORSDOF 11
