REMARK SMILES C=CC(=O)Nc1cccc(Oc2nc(Nc3ccc(N4CCN(C)CC4)cc3)nc3ccsc23)c1
REMARK SMILES IDX 14 1 13 2 12 3 34 4 33 5 32 6 31 7 30 8 29 9 15 10 16 12
REMARK SMILES IDX 19 13 18 14 27 15 17 16 28 17 20 18 24 19 23 20 22 21 25 22
REMARK SMILES IDX 21 23 26 24 11 25 10 26 9 27 35 28 8 29 6 30 7 31 5 32 3 33
REMARK SMILES IDX 4 35 2 36 1 37
REMARK H PARENT 15 11 5 34
REMARK Flexibility Score: inf
ROOT
ATOM      1  C   UNL     1       0.435  -2.064  -2.068  1.00  0.00     0.231 A 
ATOM      2  N   UNL     1       0.697  -1.629  -0.796  1.00  0.00    -0.175 NA
ATOM      3  C   UNL     1       1.808  -2.022  -0.114  1.00  0.00     0.242 A 
ATOM      4  C   UNL     1       2.682  -2.907  -0.751  1.00  0.00     0.116 A 
ATOM      5  S   UNL     1       4.072  -3.675  -0.195  1.00  0.00    -0.136 S 
ATOM      6  C   UNL     1       4.351  -4.544  -1.622  1.00  0.00     0.068 A 
ATOM      7  C   UNL     1       3.348  -4.243  -2.542  1.00  0.00     0.041 A 
ATOM      8  C   UNL     1       2.419  -3.331  -2.036  1.00  0.00     0.091 A 
ATOM      9  N   UNL     1       1.309  -2.908  -2.691  1.00  0.00    -0.212 NA
ENDROOT
BRANCH   1  10
ATOM     10  N   UNL     1      -0.733  -1.614  -2.772  1.00  0.00    -0.324 N 
ATOM     11  H   UNL     1      -0.746  -1.734  -3.809  1.00  0.00     0.170 HD
BRANCH  10  12
ATOM     12  C   UNL     1      -1.830  -0.915  -2.155  1.00  0.00     0.041 A 
ATOM     13  C   UNL     1      -3.984   0.490  -0.990  1.00  0.00     0.037 A 
ATOM     14  C   UNL     1      -3.303  -0.497  -0.262  1.00  0.00     0.028 A 
ATOM     15  C   UNL     1      -3.608   0.741  -2.318  1.00  0.00     0.028 A 
ATOM     16  C   UNL     1      -2.244  -1.203  -0.842  1.00  0.00     0.028 A 
ATOM     17  C   UNL     1      -2.538   0.044  -2.895  1.00  0.00     0.028 A 
BRANCH  13  18
ATOM     18  N   UNL     1      -5.034   1.251  -0.371  1.00  0.00    -0.369 N 
ATOM     19  C   UNL     1      -8.287   2.321   2.075  1.00  0.00     0.105 C 
ATOM     20  N   UNL     1      -7.270   1.643   1.250  1.00  0.00    -0.303 NA
ATOM     21  C   UNL     1      -7.318   2.154  -0.133  1.00  0.00     0.105 C 
ATOM     22  C   UNL     1      -5.924   1.745   1.877  1.00  0.00     0.105 C 
ATOM     23  C   UNL     1      -6.350   1.360  -1.014  1.00  0.00     0.132 C 
ATOM     24  C   UNL     1      -4.782   1.981   0.874  1.00  0.00     0.132 C 
ENDBRANCH  13  18
ENDBRANCH  10  12
ENDBRANCH   1  10
BRANCH   3  25
ATOM     25  O   UNL     1       2.000  -1.573   1.200  1.00  0.00    -0.437 OA
BRANCH  25  26
ATOM     26  C   UNL     1       3.216  -1.125   1.732  1.00  0.00     0.131 A 
ATOM     27  C   UNL     1       3.417  -1.226   3.111  1.00  0.00     0.047 A 
ATOM     28  C   UNL     1       4.213  -0.543   0.927  1.00  0.00     0.073 A 
ATOM     29  C   UNL     1       4.624  -0.814   3.678  1.00  0.00     0.006 A 
ATOM     30  C   UNL     1       5.416  -0.093   1.495  1.00  0.00     0.045 A 
ATOM     31  C   UNL     1       5.626  -0.264   2.875  1.00  0.00     0.026 A 
BRANCH  30  32
ATOM     32  N   UNL     1       6.433   0.471   0.645  1.00  0.00    -0.322 N 
ATOM     33  C   UNL     1       7.369   1.475   1.064  1.00  0.00     0.247 C 
ATOM     34  H   UNL     1       6.430   0.201  -0.364  1.00  0.00     0.170 HD
ATOM     35  O   UNL     1       7.190   2.104   2.144  1.00  0.00    -0.270 OA
BRANCH  33  36
ATOM     36  C   UNL     1       8.516   1.804   0.196  1.00  0.00     0.064 C 
ATOM     37  C   UNL     1       9.477   2.652   0.567  1.00  0.00     0.014 C 
ENDBRANCH  33  36
ENDBRANCH  30  32
ENDBRANCH  25  26
ENDBRANCH   3  25
TORSDOF 7
