REMARK SMILES O=C(NCCNCC(O)COc1ccc(O)cc1)N1CCOCC1
REMARK SMILES IDX 7 1 8 2 9 3 10 5 11 6 12 7 13 8 18 9 14 10 17 11 15 12 16 13
REMARK SMILES IDX 6 15 5 17 4 18 3 19 2 20 1 22 19 23 20 24 24 25 21 26 23 27
REMARK SMILES IDX 22 28
REMARK H PARENT 9 4 16 14 6 16 3 21
REMARK Flexibility Score: inf
ROOT
ATOM      1  C   UNL     1       1.274   0.858  -0.357  1.00  0.00     0.116 C 
ENDROOT
BRANCH   1   2
ATOM      2  C   UNL     1       2.770   1.216  -0.287  1.00  0.00     0.165 C 
BRANCH   2   3
ATOM      3  O   UNL     1       2.969   2.590  -0.509  1.00  0.00    -0.388 OA
ATOM      4  H   UNL     1       2.577   3.082   0.259  1.00  0.00     0.211 HD
ENDBRANCH   2   3
BRANCH   2   5
ATOM      5  C   UNL     1       3.424   0.767   1.035  1.00  0.00     0.262 C 
BRANCH   5   6
ATOM      6  O   UNL     1       4.833   0.995   1.005  1.00  0.00    -0.491 OA
BRANCH   6   7
ATOM      7  C   UNL     1       5.774   0.212   0.314  1.00  0.00     0.119 A 
ATOM      8  C   UNL     1       7.108   0.638   0.308  1.00  0.00     0.050 A 
ATOM      9  C   UNL     1       5.431  -0.978  -0.359  1.00  0.00     0.050 A 
ATOM     10  C   UNL     1       8.087  -0.101  -0.362  1.00  0.00     0.050 A 
ATOM     11  C   UNL     1       6.412  -1.716  -1.029  1.00  0.00     0.050 A 
ATOM     12  C   UNL     1       7.743  -1.279  -1.032  1.00  0.00     0.115 A 
BRANCH  12  13
ATOM     13  O   UNL     1       8.728  -2.006  -1.696  1.00  0.00    -0.508 OA
ATOM     14  H   UNL     1       8.511  -2.864  -2.190  1.00  0.00     0.293 HD
ENDBRANCH  12  13
ENDBRANCH   6   7
ENDBRANCH   5   6
ENDBRANCH   2   5
ENDBRANCH   1   2
BRANCH   1  15
ATOM     15  N   UNL     1       0.509   1.550   0.693  1.00  0.00    -0.312 NA
ATOM     16  H   UNL     1       0.634   1.041   1.599  1.00  0.00     0.122 HD
BRANCH  15  17
ATOM     17  C   UNL     1      -0.928   1.623   0.384  1.00  0.00     0.102 C 
BRANCH  17  18
ATOM     18  C   UNL     1      -1.619   0.252   0.467  1.00  0.00     0.133 C 
BRANCH  18  19
ATOM     19  N   UNL     1      -3.062   0.383   0.263  1.00  0.00    -0.337 N 
ATOM     20  C   UNL     1      -3.926  -0.765   0.306  1.00  0.00     0.317 C 
ATOM     21  H   UNL     1      -3.473   1.332   0.118  1.00  0.00     0.165 HD
ATOM     22  O   UNL     1      -3.454  -1.883   0.653  1.00  0.00    -0.249 OA
ATOM     23  N   UNL     1      -5.325  -0.657  -0.033  1.00  0.00    -0.320 N 
ATOM     24  C   UNL     1      -5.830   0.513  -0.761  1.00  0.00     0.150 C 
ATOM     25  C   UNL     1      -6.295  -1.541   0.627  1.00  0.00     0.150 C 
ATOM     26  C   UNL     1      -7.115   0.160  -1.518  1.00  0.00     0.181 C 
ATOM     27  C   UNL     1      -7.536  -1.723  -0.251  1.00  0.00     0.181 C 
ATOM     28  O   UNL     1      -8.047  -0.471  -0.663  1.00  0.00    -0.378 OA
ENDBRANCH  18  19
ENDBRANCH  17  18
ENDBRANCH  15  17
ENDBRANCH   1  15
TORSDOF 10
