REMARK SMILES O=c1ccc2cc(O[C@@H]3O[C@H](CO)[C@@H](O)[C@H](O)[C@H]3O)c(O)cc2o1
REMARK SMILES IDX 11 1 10 2 9 3 18 4 16 5 14 6 12 7 13 8 15 10 8 12 7 13 20 14
REMARK SMILES IDX 6 15 22 16 5 17 23 18 4 19 24 20 3 21 2 22 1 23 21 24 17 26
REMARK SMILES IDX 19 28
REMARK H PARENT 13 9 15 11 21 25 17 27 19 29
REMARK Flexibility Score: inf
ROOT
ATOM      1  C   UNL     1      -3.044   1.091   0.553  1.00  0.00     0.179 C 
ATOM      2  O   UNL     1      -1.988   0.599   1.363  1.00  0.00    -0.332 OA
ATOM      3  C   UNL     1      -0.887   0.189   0.571  1.00  0.00     0.339 C 
ATOM      4  C   UNL     1      -1.288  -1.039  -0.275  1.00  0.00     0.214 C 
ATOM      5  C   UNL     1      -2.502  -0.681  -1.156  1.00  0.00     0.180 C 
ATOM      6  C   UNL     1      -3.625  -0.056  -0.309  1.00  0.00     0.177 C 
ENDROOT
BRANCH   1   7
ATOM      7  C   UNL     1      -4.107   1.696   1.480  1.00  0.00     0.191 C 
BRANCH   7   8
ATOM      8  O   UNL     1      -5.041   2.432   0.739  1.00  0.00    -0.394 OA
ATOM      9  H   UNL     1      -5.704   2.775   1.393  1.00  0.00     0.210 HD
ENDBRANCH   7   8
ENDBRANCH   1   7
BRANCH   6  10
ATOM     10  O   UNL     1      -4.622   0.433  -1.172  1.00  0.00    -0.387 OA
ATOM     11  H   UNL     1      -5.499   0.234  -0.751  1.00  0.00     0.211 HD
ENDBRANCH   6  10
BRANCH   3  12
ATOM     12  O   UNL     1       0.176  -0.163   1.460  1.00  0.00    -0.458 OA
BRANCH  12  13
ATOM     13  C   UNL     1       1.548  -0.232   1.152  1.00  0.00     0.165 A 
ATOM     14  C   UNL     1       2.424  -0.754   2.125  1.00  0.00     0.161 A 
ATOM     15  C   UNL     1       2.075   0.211  -0.080  1.00  0.00     0.062 A 
ATOM     16  C   UNL     1       3.797  -0.839   1.868  1.00  0.00     0.098 A 
ATOM     17  C   UNL     1       3.451   0.121  -0.333  1.00  0.00     0.022 A 
ATOM     18  C   UNL     1       4.316  -0.407   0.647  1.00  0.00     0.142 A 
ATOM     19  C   UNL     1       4.000   0.547  -1.547  1.00  0.00     0.019 A 
ATOM     20  O   UNL     1       5.623  -0.493   0.412  1.00  0.00    -0.423 OA
ATOM     21  C   UNL     1       5.375   0.438  -1.752  1.00  0.00     0.094 A 
ATOM     22  C   UNL     1       6.172  -0.096  -0.734  1.00  0.00     0.336 A 
ATOM     23  O   UNL     1       7.415  -0.203  -0.899  1.00  0.00    -0.246 OA
BRANCH  14  24
ATOM     24  O   UNL     1       1.946  -1.197   3.358  1.00  0.00    -0.504 OA
ATOM     25  H   UNL     1       0.963  -1.163   3.602  1.00  0.00     0.293 HD
ENDBRANCH  14  24
ENDBRANCH  12  13
ENDBRANCH   3  12
BRANCH   5  26
ATOM     26  O   UNL     1      -2.970  -1.809  -1.852  1.00  0.00    -0.387 OA
ATOM     27  H   UNL     1      -3.248  -2.485  -1.180  1.00  0.00     0.211 HD
ENDBRANCH   5  26
BRANCH   4  28
ATOM     28  O   UNL     1      -0.215  -1.438  -1.087  1.00  0.00    -0.384 OA
ATOM     29  H   UNL     1      -0.379  -2.385  -1.336  1.00  0.00     0.211 HD
ENDBRANCH   4  28
TORSDOF 8
