REMARK SMILES C=CCOc1ccc(CC(=O)O)cc1Cl
REMARK SMILES IDX 8 1 13 2 14 3 15 4 5 5 6 6 7 7 9 8 10 9 11 10 12 11 4 13
REMARK SMILES IDX 3 14 2 15 1 16
REMARK H PARENT 12 12
REMARK Flexibility Score: inf
ROOT
ATOM      1  C   UNL     1      -1.965  -0.771  -0.049  1.00  0.00    -0.035 A 
ATOM      2  C   UNL     1      -1.069  -1.619  -0.717  1.00  0.00     0.028 A 
ATOM      3  C   UNL     1       0.292  -1.302  -0.781  1.00  0.00     0.083 A 
ATOM      4  Cl  UNL     1       1.388  -2.391  -1.618  1.00  0.00    -0.080 Cl
ATOM      5  C   UNL     1       0.775  -0.126  -0.186  1.00  0.00     0.138 A 
ATOM      6  C   UNL     1      -0.128   0.731   0.472  1.00  0.00     0.048 A 
ATOM      7  C   UNL     1      -1.487   0.411   0.535  1.00  0.00     0.008 A 
ENDROOT
BRANCH   1   8
ATOM      8  C   UNL     1      -3.433  -1.097  -0.010  1.00  0.00     0.158 C 
BRANCH   8   9
ATOM      9  C   UNL     1      -4.122  -0.503  -1.196  1.00  0.00     0.307 C 
ATOM     10  O   UNL     1      -4.236  -1.170  -2.259  1.00  0.00    -0.252 OA
BRANCH   9  11
ATOM     11  O   UNL     1      -4.598   0.803  -1.138  1.00  0.00    -0.481 OA
ATOM     12  H   UNL     1      -5.053   1.226  -1.939  1.00  0.00     0.296 HD
ENDBRANCH   9  11
ENDBRANCH   8   9
ENDBRANCH   1   8
BRANCH   5  13
ATOM     13  O   UNL     1       2.147   0.159  -0.271  1.00  0.00    -0.488 OA
BRANCH  13  14
ATOM     14  C   UNL     1       2.770   1.309   0.294  1.00  0.00     0.257 C 
BRANCH  14  15
ATOM     15  C   UNL     1       4.241   1.273   0.010  1.00  0.00     0.006 C 
ATOM     16  C   UNL     1       5.022   0.312   0.509  1.00  0.00     0.007 C 
ENDBRANCH  14  15
ENDBRANCH  13  14
ENDBRANCH   5  13
TORSDOF 6
