REMARK SMILES C[C@@H]1C[C@H]2[C@@H]3C[C@H](F)C4=CC(=O)C=C[C@]4(C)[C@@]3(F)[C@@H](O)C[C@]2(C)[C@@]1(O)C(=O)SCF
REMARK SMILES IDX 26 1 27 2 24 3 4 4 3 5 22 6 5 7 2 8 23 9 21 10 17 11 6 12
REMARK SMILES IDX 1 13 19 14 18 15 15 16 7 17 9 18 14 19 16 20 8 21 10 22
REMARK SMILES IDX 13 23 11 24 12 25 25 26 20 28 28 30 29 31 30 32
REMARK H PARENT 25 27 20 29
REMARK Flexibility Score: inf
ROOT
ATOM      1  C   UNL     1      -3.972  -0.898   0.279  1.00  0.00     0.223 C 
ATOM      2  O   UNL     1      -4.608  -1.002   1.318  1.00  0.00    -0.284 OA
ENDROOT
BRANCH   1   3
ATOM      3  C   UNL     1      -2.836   0.123   0.150  1.00  0.00     0.141 C 
ATOM      4  C   UNL     1      -0.565   0.744   0.542  1.00  0.00     0.005 C 
ATOM      5  C   UNL     1      -1.345   1.536   1.587  1.00  0.00     0.011 C 
ATOM      6  C   UNL     1      -1.417  -0.520   0.296  1.00  0.00     0.010 C 
ATOM      7  C   UNL     1       0.932   0.421   0.782  1.00  0.00     0.037 C 
ATOM      8  C   UNL     1      -2.831   1.203   1.300  1.00  0.00     0.027 C 
ATOM      9  C   UNL     1      -1.419  -1.523   1.504  1.00  0.00     0.015 C 
ATOM     10  C   UNL     1      -0.864  -1.237  -0.970  1.00  0.00     0.045 C 
ATOM     11  C   UNL     1       1.507  -0.268  -0.505  1.00  0.00     0.152 C 
ATOM     12  C   UNL     1       1.768   1.650   1.256  1.00  0.00     0.049 C 
ATOM     13  C   UNL     1      -3.656   2.463   0.996  1.00  0.00     0.011 C 
ATOM     14  C   UNL     1       0.665  -1.536  -0.891  1.00  0.00     0.154 C 
ATOM     15  F   UNL     1       1.333   0.605  -1.576  1.00  0.00    -0.239 F 
ATOM     16  C   UNL     1       3.065  -0.482  -0.361  1.00  0.00     0.047 C 
ATOM     17  C   UNL     1       2.941   2.072   0.353  1.00  0.00     0.194 C 
ATOM     18  C   UNL     1       3.700   0.917  -0.268  1.00  0.00    -0.020 C 
ATOM     19  C   UNL     1       3.623  -1.269  -1.550  1.00  0.00    -0.009 C 
ATOM     20  C   UNL     1       3.487  -1.266   0.907  1.00  0.00     0.024 C 
ATOM     21  F   UNL     1       2.470   2.896  -0.656  1.00  0.00    -0.243 F 
ATOM     22  C   UNL     1       4.901   1.177  -0.817  1.00  0.00     0.055 C 
ATOM     23  C   UNL     1       4.821  -1.006  -2.081  1.00  0.00     0.048 C 
ATOM     24  C   UNL     1       5.563   0.185  -1.666  1.00  0.00     0.178 C 
ATOM     25  O   UNL     1       6.737   0.377  -2.073  1.00  0.00    -0.290 OA
BRANCH   3  26
ATOM     26  O   UNL     1      -2.923   0.757  -1.111  1.00  0.00    -0.380 OA
ATOM     27  H   UNL     1      -3.851   1.081  -1.236  1.00  0.00     0.212 HD
ENDBRANCH   3  26
BRANCH  14  28
ATOM     28  O   UNL     1       0.918  -2.604  -0.018  1.00  0.00    -0.390 OA
ATOM     29  H   UNL     1       0.610  -3.431  -0.474  1.00  0.00     0.211 HD
ENDBRANCH  14  28
ENDBRANCH   1   3
BRANCH   1  30
ATOM     30  S   UNL     1      -4.328  -2.056  -1.055  1.00  0.00    -0.051 SA
BRANCH  30  31
ATOM     31  C   UNL     1      -5.693  -1.087  -1.781  1.00  0.00     0.292 C 
ATOM     32  F   UNL     1      -5.218  -0.347  -2.847  1.00  0.00    -0.239 F 
ENDBRANCH  30  31
ENDBRANCH   1  30
TORSDOF 5
