REMARK SMILES CN1C(=O)C(O)N=C(c2ccccc2Cl)c2cc(Cl)ccc21
REMARK SMILES IDX 22 1 16 2 17 3 18 4 19 5 20 6 21 7 2 8 1 9 3 10 4 11 8 13
REMARK SMILES IDX 7 14 9 15 10 16 14 17 11 18 13 19 15 20 12 21 5 22 6 24
REMARK H PARENT 6 25
REMARK Flexibility Score: 80.00
ROOT
ATOM      1  C   UNL     1      -1.802   0.253  -0.093  1.00  0.00     0.053 A 
ATOM      2  C   UNL     1      -0.456   0.487  -0.474  1.00  0.00     0.026 A 
ATOM      3  C   UNL     1      -0.096   1.747  -0.989  1.00  0.00     0.033 A 
ATOM      4  C   UNL     1      -1.048   2.758  -1.132  1.00  0.00     0.041 A 
ATOM      5  Cl  UNL     1      -0.579   4.320  -1.779  1.00  0.00    -0.084 Cl
ATOM      6  C   UNL     1      -2.372   2.526  -0.762  1.00  0.00     0.023 A 
ATOM      7  C   UNL     1      -2.747   1.285  -0.246  1.00  0.00     0.028 A 
ENDROOT
BRANCH   1   8
ATOM      8  N   UNL     1      -2.217  -1.010   0.470  1.00  0.00    -0.311 N 
ATOM      9  C   UNL     1      -3.108  -1.024   1.634  1.00  0.00     0.153 C 
BRANCH   8  10
ATOM     10  C   UNL     1      -1.931  -2.249  -0.208  1.00  0.00     0.278 CG0
ATOM     11  O   UNL     1      -2.600  -3.284   0.060  1.00  0.00    -0.269 OA
ATOM     12  G   UNL     1      -0.838  -2.338  -1.229  1.00  0.00     0.000 G0
ENDBRANCH   8  10
ENDBRANCH   1   8
BRANCH   2  13
ATOM     13  C   UNL     1       0.601  -0.551  -0.328  1.00  0.00     0.079 C 
ATOM     14  N   UNL     1       0.398  -1.791  -0.674  1.00  0.00    -0.243 NA
BRANCH  13  15
ATOM     15  C   UNL     1       1.927  -0.175   0.223  1.00  0.00     0.019 A 
ATOM     16  C   UNL     1       1.984   0.642   1.367  1.00  0.00     0.012 A 
ATOM     17  C   UNL     1       3.136  -0.617  -0.366  1.00  0.00     0.050 A 
ATOM     18  C   UNL     1       3.214   1.005   1.920  1.00  0.00     0.001 A 
ATOM     19  C   UNL     1       4.363  -0.246   0.200  1.00  0.00     0.021 A 
ATOM     20  Cl  UNL     1       3.165  -1.575  -1.844  1.00  0.00    -0.084 Cl
ATOM     21  C   UNL     1       4.401   0.559   1.339  1.00  0.00     0.002 A 
ENDBRANCH  13  15
BRANCH  14  22
ATOM     22  C   UNL     1      -0.838  -2.338  -1.229  1.00  0.00     0.323 CG0
ATOM     23  G   UNL     1      -1.931  -2.249  -0.208  1.00  0.00     0.000 G0
BRANCH  22  24
ATOM     24  O   UNL     1      -1.209  -1.651  -2.395  1.00  0.00    -0.364 OA
ATOM     25  H   UNL     1      -0.502  -1.835  -3.067  1.00  0.00     0.213 HD
ENDBRANCH  22  24
ENDBRANCH  14  22
ENDBRANCH   2  13
TORSDOF 2
