REMARK SMILES COc1ccc2c(c1)OC(C)(C)[C@@H](c1ccccc1)[C@@H]2c1ccc(OCCN2CCCC2)cc1
REMARK SMILES IDX 25 1 24 2 21 3 22 4 34 5 23 6 33 7 20 8 6 9 13 10 7 11 5 12
REMARK SMILES IDX 10 13 9 14 8 15 4 16 11 17 12 18 3 19 14 20 15 21 19 22
REMARK SMILES IDX 16 23 18 24 17 25 2 26 1 27 26 28 27 29 28 30 29 31 32 32
REMARK SMILES IDX 30 33 31 34
REMARK H PARENT
REMARK Flexibility Score: inf
ROOT
ATOM      1  O   UNL     1       3.517   0.879  -1.035  1.00  0.00    -0.492 OA
ENDROOT
BRANCH   1   2
ATOM      2  C   UNL     1       2.145   0.601  -0.990  1.00  0.00     0.119 A 
ATOM      3  C   UNL     1      -0.652   0.251  -0.956  1.00  0.00    -0.039 A 
ATOM      4  C   UNL     1      -0.033   1.174  -0.093  1.00  0.00     0.008 A 
ATOM      5  C   UNL     1       0.152  -0.519  -1.818  1.00  0.00     0.008 A 
ATOM      6  C   UNL     1       1.350   1.357  -0.125  1.00  0.00     0.047 A 
ATOM      7  C   UNL     1       1.541  -0.353  -1.830  1.00  0.00     0.047 A 
BRANCH   3   8
ATOM      8  C   UNL     1      -2.169   0.111  -0.993  1.00  0.00     0.064 C 
ATOM      9  C   UNL     1      -2.840   1.463  -1.204  1.00  0.00     0.003 A 
ATOM     10  C   UNL     1      -2.675  -0.604   0.298  1.00  0.00     0.075 C 
ATOM     11  C   UNL     1      -3.992   1.817  -0.469  1.00  0.00     0.127 A 
ATOM     12  C   UNL     1      -2.373   2.339  -2.198  1.00  0.00     0.012 A 
ATOM     13  C   UNL     1      -4.221  -0.462   0.482  1.00  0.00     0.111 C 
ATOM     14  O   UNL     1      -4.545   0.929   0.455  1.00  0.00    -0.487 OA
ATOM     15  C   UNL     1      -4.585   3.071  -0.650  1.00  0.00     0.093 A 
ATOM     16  C   UNL     1      -2.971   3.589  -2.381  1.00  0.00     0.047 A 
ATOM     17  C   UNL     1      -4.659  -1.003   1.854  1.00  0.00     0.057 C 
ATOM     18  C   UNL     1      -5.034  -1.173  -0.619  1.00  0.00     0.057 C 
ATOM     19  C   UNL     1      -4.069   3.972  -1.603  1.00  0.00     0.122 A 
BRANCH  10  20
ATOM     20  C   UNL     1      -2.169  -2.042   0.413  1.00  0.00    -0.040 A 
ATOM     21  C   UNL     1      -1.579  -2.467   1.620  1.00  0.00     0.004 A 
ATOM     22  C   UNL     1      -2.268  -2.962  -0.653  1.00  0.00     0.004 A 
ATOM     23  C   UNL     1      -1.092  -3.768   1.753  1.00  0.00     0.000 A 
ATOM     24  C   UNL     1      -1.767  -4.261  -0.518  1.00  0.00     0.000 A 
ATOM     25  C   UNL     1      -1.185  -4.664   0.686  1.00  0.00     0.000 A 
ENDBRANCH  10  20
BRANCH  19  26
ATOM     26  O   UNL     1      -4.633   5.237  -1.823  1.00  0.00    -0.497 OA
ATOM     27  C   UNL     1      -5.747   5.758  -1.105  1.00  0.00     0.278 C 
ENDBRANCH  19  26
ENDBRANCH   3   8
ENDBRANCH   1   2
BRANCH   1  28
ATOM     28  C   UNL     1       4.554  -0.079  -1.254  1.00  0.00     0.245 C 
BRANCH  28  29
ATOM     29  C   UNL     1       5.040  -0.622   0.099  1.00  0.00     0.126 C 
BRANCH  29  30
ATOM     30  N   UNL     1       6.472  -1.009   0.037  1.00  0.00    -0.300 NA
ATOM     31  C   UNL     1       7.347   0.176   0.167  1.00  0.00     0.084 C 
ATOM     32  C   UNL     1       6.846  -1.864   1.180  1.00  0.00     0.084 C 
ATOM     33  C   UNL     1       7.671   0.366   1.646  1.00  0.00     0.017 C 
ATOM     34  C   UNL     1       7.320  -0.956   2.311  1.00  0.00     0.017 C 
ENDBRANCH  29  30
ENDBRANCH  28  29
ENDBRANCH   1  28
TORSDOF 7
