REMARK SMILES CCN(CC)CC(C)OC(=O)[C@H]1CCCC[C@]1(O)C1CCCCC1
REMARK SMILES IDX 7 1 8 2 6 3 3 4 2 5 1 6 4 7 5 8 9 9 10 10 11 11 12 12 13 13
REMARK SMILES IDX 17 14 14 15 16 16 15 17 18 18 19 20 20 21 24 22 21 23 23 24
REMARK SMILES IDX 22 25
REMARK H PARENT 18 19
REMARK Flexibility Score: inf
ROOT
ATOM      1  C   UNL     1       1.964   0.054   0.574  1.00  0.00     0.187 C 
ATOM      2  C   UNL     1       2.890   0.439   1.734  1.00  0.00     0.054 C 
ENDROOT
BRANCH   1   3
ATOM      3  C   UNL     1       2.677   0.217  -0.776  1.00  0.00     0.129 C 
BRANCH   3   4
ATOM      4  N   UNL     1       3.767  -0.778  -0.916  1.00  0.00    -0.300 NA
BRANCH   4   5
ATOM      5  C   UNL     1       4.893  -0.234  -1.708  1.00  0.00     0.081 C 
ATOM      6  C   UNL     1       5.850   0.536  -0.802  1.00  0.00     0.021 C 
ENDBRANCH   4   5
BRANCH   4   7
ATOM      7  C   UNL     1       3.264  -2.044  -1.496  1.00  0.00     0.081 C 
ATOM      8  C   UNL     1       4.057  -3.228  -0.950  1.00  0.00     0.021 C 
ENDBRANCH   4   7
ENDBRANCH   3   4
ENDBRANCH   1   3
BRANCH   1   9
ATOM      9  O   UNL     1       0.806   0.888   0.578  1.00  0.00    -0.461 OA
BRANCH   9  10
ATOM     10  C   UNL     1      -0.281   0.699   1.438  1.00  0.00     0.312 C 
ATOM     11  O   UNL     1      -0.240  -0.188   2.335  1.00  0.00    -0.252 OA
BRANCH  10  12
ATOM     12  C   UNL     1      -1.514   1.553   1.299  1.00  0.00     0.131 C 
ATOM     13  C   UNL     1      -1.126   3.046   1.330  1.00  0.00     0.018 C 
ATOM     14  C   UNL     1      -2.404   1.232   0.034  1.00  0.00     0.081 C 
ATOM     15  C   UNL     1      -2.377   3.932   1.369  1.00  0.00     0.001 C 
ATOM     16  C   UNL     1      -3.672   2.126   0.143  1.00  0.00     0.036 C 
ATOM     17  C   UNL     1      -3.319   3.623   0.200  1.00  0.00     0.003 C 
BRANCH  14  18
ATOM     18  O   UNL     1      -1.758   1.624  -1.161  1.00  0.00    -0.389 OA
ATOM     19  H   UNL     1      -0.825   1.300  -1.152  1.00  0.00     0.211 HD
ENDBRANCH  14  18
BRANCH  14  20
ATOM     20  C   UNL     1      -2.865  -0.275  -0.111  1.00  0.00     0.022 C 
ATOM     21  C   UNL     1      -3.607  -0.849   1.134  1.00  0.00     0.006 C 
ATOM     22  C   UNL     1      -1.770  -1.263  -0.590  1.00  0.00     0.006 C 
ATOM     23  C   UNL     1      -3.651  -2.391   1.171  1.00  0.00     0.000 C 
ATOM     24  C   UNL     1      -2.375  -2.619  -1.014  1.00  0.00     0.000 C 
ATOM     25  C   UNL     1      -3.651  -2.995  -0.235  1.00  0.00     0.000 C 
ENDBRANCH  14  20
ENDBRANCH  10  12
ENDBRANCH   9  10
ENDBRANCH   1   9
TORSDOF 9
