REMARK SMILES CC(C)(N)C(=O)N[C@H](Cc1c[nH]c2ccccc12)C(=O)N[C@H](Cc1c[nH]c2ccccc12)NC=O
REMARK SMILES IDX 19 1 20 2 21 3 8 5 7 6 5 7 6 8 2 10 1 11 3 12 4 13 9 16
REMARK SMILES IDX 10 17 11 18 18 19 12 20 13 21 17 22 14 24 16 25 15 26 22 27
REMARK SMILES IDX 23 28 24 29 25 30 32 31 26 32 27 33 31 34 28 36 30 37 29 38
REMARK SMILES IDX 33 39 34 40 35 42
REMARK H PARENT 21 4 7 9 4 14 4 15 12 23 26 35 33 41
REMARK Flexibility Score: inf
ROOT
ATOM      1  C   UNL     1       0.579  -0.481  -0.612  1.00  0.00     0.244 C 
ATOM      2  O   UNL     1       1.211  -1.531  -0.301  1.00  0.00    -0.273 OA
ATOM      3  N   UNL     1       1.288   0.690  -1.052  1.00  0.00    -0.334 N 
ATOM      4  H   UNL     1       0.742   1.501  -1.427  1.00  0.00     0.165 HD
ENDROOT
BRANCH   1   5
ATOM      5  C   UNL     1      -0.927  -0.471  -0.584  1.00  0.00     0.175 C 
BRANCH   5   6
ATOM      6  N   UNL     1      -1.409  -1.220   0.579  1.00  0.00    -0.342 N 
ATOM      7  C   UNL     1      -2.370  -0.692   1.507  1.00  0.00     0.240 C 
ATOM      8  O   UNL     1      -2.656   0.537   1.478  1.00  0.00    -0.273 OA
ATOM      9  H   UNL     1      -1.116  -2.217   0.670  1.00  0.00     0.164 HD
BRANCH   7  10
ATOM     10  C   UNL     1      -3.032  -1.593   2.537  1.00  0.00     0.090 C 
ATOM     11  C   UNL     1      -3.682  -2.801   1.835  1.00  0.00     0.038 C 
ATOM     12  C   UNL     1      -1.973  -2.079   3.542  1.00  0.00     0.038 C 
BRANCH  10  13
ATOM     13  N   UNL     1      -4.061  -0.837   3.266  1.00  0.00    -0.318 NA
ATOM     14  H   UNL     1      -4.821  -0.557   2.603  1.00  0.00     0.119 HD
ATOM     15  H   UNL     1      -4.504  -1.450   3.990  1.00  0.00     0.119 HD
ENDBRANCH  10  13
ENDBRANCH   7  10
ENDBRANCH   5   6
BRANCH   5  16
ATOM     16  C   UNL     1      -1.513  -1.082  -1.868  1.00  0.00     0.072 C 
BRANCH  16  17
ATOM     17  C   UNL     1      -1.063  -0.344  -3.095  1.00  0.00    -0.020 A 
ATOM     18  C   UNL     1      -0.084  -0.761  -3.992  1.00  0.00     0.087 A 
ATOM     19  C   UNL     1      -1.409   0.934  -3.489  1.00  0.00     0.003 A 
ATOM     20  N   UNL     1       0.168   0.206  -4.902  1.00  0.00    -0.361 N 
ATOM     21  C   UNL     1      -0.640   1.233  -4.586  1.00  0.00     0.046 A 
ATOM     22  C   UNL     1      -2.312   1.854  -2.955  1.00  0.00     0.010 A 
ATOM     23  H   UNL     1       0.866   0.167  -5.679  1.00  0.00     0.166 HD
ATOM     24  C   UNL     1      -0.720   2.473  -5.222  1.00  0.00     0.026 A 
ATOM     25  C   UNL     1      -2.414   3.113  -3.579  1.00  0.00     0.001 A 
ATOM     26  C   UNL     1      -1.622   3.420  -4.706  1.00  0.00     0.002 A 
ENDBRANCH  16  17
ENDBRANCH   5  16
ENDBRANCH   1   5
BRANCH   3  27
ATOM     27  C   UNL     1       2.713   0.893  -0.775  1.00  0.00     0.182 C 
BRANCH  27  28
ATOM     28  C   UNL     1       2.879   1.850   0.420  1.00  0.00     0.085 C 
BRANCH  28  29
ATOM     29  C   UNL     1       2.198   1.311   1.647  1.00  0.00    -0.019 A 
ATOM     30  C   UNL     1       0.911   1.612   2.077  1.00  0.00     0.087 A 
ATOM     31  C   UNL     1       2.641   0.299   2.476  1.00  0.00     0.003 A 
ATOM     32  N   UNL     1       0.575   0.841   3.135  1.00  0.00    -0.361 N 
ATOM     33  C   UNL     1       1.630   0.042   3.365  1.00  0.00     0.046 A 
ATOM     34  C   UNL     1       3.835  -0.421   2.496  1.00  0.00     0.010 A 
ATOM     35  H   UNL     1      -0.333   0.854   3.647  1.00  0.00     0.166 HD
ATOM     36  C   UNL     1       1.741  -0.955   4.334  1.00  0.00     0.026 A 
ATOM     37  C   UNL     1       3.977  -1.427   3.469  1.00  0.00     0.001 A 
ATOM     38  C   UNL     1       2.931  -1.697   4.381  1.00  0.00     0.002 A 
ENDBRANCH  28  29
ENDBRANCH  27  28
BRANCH  27  39
ATOM     39  N   UNL     1       3.363   1.445  -1.966  1.00  0.00    -0.338 N 
ATOM     40  C   UNL     1       3.486   0.695  -3.177  1.00  0.00     0.338 C 
ATOM     41  H   UNL     1       3.714   2.428  -1.968  1.00  0.00     0.165 HD
ATOM     42  O   UNL     1       3.111  -0.505  -3.236  1.00  0.00    -0.279 OA
ENDBRANCH  27  39
ENDBRANCH   3  27
TORSDOF 10
