REMARK SMILES CC1(C)[C@@H](O[C@H]2O[C@H](C(=O)O)[C@@H](O)[C@H](O)[C@H]2O[C@@H]2O[C@H](C(=O)O)[C@@H](O)[C@H](O)[C@H]2O)CC[C@]2(C)[C@H]3C(=O)C=C4[C@@H]5C[C@@](C)(C(=O)O)CC[C@]5(C)CC[C@@]4(C)[C@]3(C)CC[C@@H]12
REMARK SMILES IDX 6 1 7 2 8 3 12 4 14 5 16 6 5 7 4 8 39 9 40 10 48 11 38 12
REMARK SMILES IDX 41 13 47 14 49 15 50 16 52 17 37 18 42 19 46 20 51 21 53 22
REMARK SMILES IDX 54 23 35 24 34 25 56 26 55 27 36 28 32 29 57 30 33 31 31 32
REMARK SMILES IDX 58 33 30 34 2 35 1 36 3 37 43 38 44 39 45 40 17 42 18 43
REMARK SMILES IDX 19 44 28 45 20 46 26 47 24 48 29 49 21 51 22 52 23 53 27 55
REMARK SMILES IDX 25 57 9 59 10 60 11 61 15 63 13 65
REMARK H PARENT 45 41 29 50 23 54 27 56 25 58 11 62 15 64 13 66
REMARK Flexibility Score: inf
ROOT
ATOM      1  C   UNL     1       4.521  -0.875   0.291  1.00  0.00     0.283 C 
ATOM      2  O   UNL     1       4.366  -2.137   0.928  1.00  0.00    -0.332 OA
ATOM      3  C   UNL     1       4.646  -3.217   0.053  1.00  0.00     0.262 C 
ATOM      4  C   UNL     1       6.103  -3.170  -0.450  1.00  0.00     0.186 C 
ATOM      5  C   UNL     1       6.361  -1.829  -1.148  1.00  0.00     0.180 C 
ATOM      6  C   UNL     1       5.961  -0.670  -0.226  1.00  0.00     0.209 C 
ENDROOT
BRANCH   1   7
ATOM      7  O   UNL     1       3.600  -0.669  -0.772  1.00  0.00    -0.346 OA
BRANCH   7   8
ATOM      8  C   UNL     1       2.231  -0.735  -0.381  1.00  0.00     0.127 C 
ATOM      9  C   UNL     1      -6.559   1.143   0.302  1.00  0.00     0.023 C 
ATOM     10  C   UNL     1      -7.242   1.459   1.677  1.00  0.00     0.027 C 
ATOM     11  C   UNL     1      -7.485   0.357  -0.701  1.00  0.00    -0.026 C 
ATOM     12  C   UNL     1      -5.099   0.651   0.411  1.00  0.00    -0.057 C 
ATOM     13  C   UNL     1      -8.166   0.363   2.290  1.00  0.00     0.066 C 
ATOM     14  C   UNL     1      -8.953   0.326  -0.195  1.00  0.00     0.008 C 
ATOM     15  C   UNL     1      -7.512   1.088  -2.074  1.00  0.00     0.012 C 
ATOM     16  C   UNL     1      -6.999  -1.101  -0.911  1.00  0.00     0.008 C 
ATOM     17  C   UNL     1      -4.534  -0.580  -0.342  1.00  0.00    -0.005 C 
ATOM     18  C   UNL     1      -4.220   1.456   1.059  1.00  0.00     0.047 C 
ATOM     19  C   UNL     1      -7.298  -0.717   2.958  1.00  0.00     0.024 C 
ATOM     20  C   UNL     1      -9.108  -0.273   1.211  1.00  0.00     0.019 C 
ATOM     21  C   UNL     1      -5.546  -1.175  -1.375  1.00  0.00     0.012 C 
ATOM     22  C   UNL     1      -4.294  -1.693   0.738  1.00  0.00     0.017 C 
ATOM     23  C   UNL     1      -3.161  -0.133  -1.065  1.00  0.00    -0.013 C 
ATOM     24  C   UNL     1      -2.749   1.291   0.984  1.00  0.00     0.159 C 
ATOM     25  C   UNL     1      -2.119   0.239   0.070  1.00  0.00     0.073 C 
ATOM     26  C   UNL     1      -2.582  -1.264  -1.967  1.00  0.00     0.009 C 
ATOM     27  C   UNL     1      -3.438   1.103  -2.000  1.00  0.00     0.013 C 
ATOM     28  O   UNL     1      -2.039   2.026   1.718  1.00  0.00    -0.295 OA
ATOM     29  C   UNL     1      -0.615   0.495  -0.405  1.00  0.00    -0.018 C 
ATOM     30  C   UNL     1      -1.159  -0.986  -2.471  1.00  0.00     0.005 C 
ATOM     31  C   UNL     1      -0.493   1.875  -1.127  1.00  0.00     0.012 C 
ATOM     32  C   UNL     1       0.334   0.496   0.839  1.00  0.00     0.010 C 
ATOM     33  C   UNL     1      -0.180  -0.743  -1.292  1.00  0.00     0.004 C 
ATOM     34  C   UNL     1       1.832   0.472   0.499  1.00  0.00     0.033 C 
ATOM     35  C   UNL     1       1.354  -0.819  -1.679  1.00  0.00    -0.006 C 
ATOM     36  C   UNL     1       1.775   0.275  -2.698  1.00  0.00     0.014 C 
ATOM     37  C   UNL     1       1.667  -2.189  -2.347  1.00  0.00     0.014 C 
BRANCH  13  38
ATOM     38  C   UNL     1      -9.005   0.983   3.403  1.00  0.00     0.309 C 
ATOM     39  O   UNL     1     -10.012   0.372   3.861  1.00  0.00    -0.252 OA
BRANCH  38  40
ATOM     40  O   UNL     1      -8.617   2.183   4.001  1.00  0.00    -0.481 OA
ATOM     41  H   UNL     1      -9.155   2.583   4.762  1.00  0.00     0.296 HD
ENDBRANCH  38  40
ENDBRANCH  13  38
ENDBRANCH   7   8
ENDBRANCH   1   7
BRANCH   6  42
ATOM     42  O   UNL     1       6.013   0.540  -0.974  1.00  0.00    -0.338 OA
BRANCH  42  43
ATOM     43  C   UNL     1       6.879   1.519  -0.420  1.00  0.00     0.283 C 
ATOM     44  O   UNL     1       8.175   0.984  -0.189  1.00  0.00    -0.332 OA
ATOM     45  C   UNL     1       6.290   2.144   0.870  1.00  0.00     0.202 C 
ATOM     46  C   UNL     1       9.084   2.012   0.174  1.00  0.00     0.262 C 
ATOM     47  C   UNL     1       7.250   3.227   1.401  1.00  0.00     0.180 C 
ATOM     48  C   UNL     1       8.678   2.660   1.519  1.00  0.00     0.186 C 
BRANCH  45  49
ATOM     49  O   UNL     1       5.010   2.673   0.636  1.00  0.00    -0.385 OA
ATOM     50  H   UNL     1       5.093   3.367  -0.071  1.00  0.00     0.211 HD
ENDBRANCH  45  49
BRANCH  46  51
ATOM     51  C   UNL     1      10.460   1.423   0.265  1.00  0.00     0.335 C 
ATOM     52  O   UNL     1      10.636   0.280   0.773  1.00  0.00    -0.249 OA
BRANCH  51  53
ATOM     53  O   UNL     1      11.550   2.135  -0.229  1.00  0.00    -0.479 OA
ATOM     54  H   UNL     1      12.486   1.739  -0.213  1.00  0.00     0.296 HD
ENDBRANCH  51  53
ENDBRANCH  46  51
BRANCH  47  55
ATOM     55  O   UNL     1       6.802   3.735   2.633  1.00  0.00    -0.387 OA
ATOM     56  H   UNL     1       6.793   2.987   3.285  1.00  0.00     0.211 HD
ENDBRANCH  47  55
BRANCH  48  57
ATOM     57  O   UNL     1       9.559   3.706   1.844  1.00  0.00    -0.387 OA
ATOM     58  H   UNL     1      10.320   3.303   2.339  1.00  0.00     0.211 HD
ENDBRANCH  48  57
ENDBRANCH  42  43
ENDBRANCH   6  42
BRANCH   3  59
ATOM     59  C   UNL     1       4.408  -4.495   0.801  1.00  0.00     0.335 C 
ATOM     60  O   UNL     1       3.819  -5.460   0.240  1.00  0.00    -0.249 OA
BRANCH  59  61
ATOM     61  O   UNL     1       4.901  -4.644   2.095  1.00  0.00    -0.479 OA
ATOM     62  H   UNL     1       4.783  -5.516   2.600  1.00  0.00     0.296 HD
ENDBRANCH  59  61
ENDBRANCH   3  59
BRANCH   5  63
ATOM     63  O   UNL     1       7.722  -1.709  -1.474  1.00  0.00    -0.387 OA
ATOM     64  H   UNL     1       7.874  -2.255  -2.289  1.00  0.00     0.211 HD
ENDBRANCH   5  63
BRANCH   4  65
ATOM     65  O   UNL     1       6.331  -4.213  -1.366  1.00  0.00    -0.387 OA
ATOM     66  H   UNL     1       6.645  -4.998  -0.844  1.00  0.00     0.211 HD
ENDBRANCH   4  65
TORSDOF 15
