REMARK SMILES COc1ccc(S(=O)(=O)N2c3ccc(Cl)cc3[C@](O)(c3ccccc3Cl)[C@@H]2C(=O)N2CCC[C@H]2C(N)=O)cc1OC
REMARK SMILES IDX 10 1 27 2 18 3 17 4 16 5 14 6 15 7 13 8 12 9 11 10 7 11 8 12
REMARK SMILES IDX 9 13 6 14 3 15 4 16 39 17 5 18 38 19 2 20 1 21 40 22 41 23
REMARK SMILES IDX 28 24 29 25 30 26 31 27 34 28 32 29 33 30 35 31 36 32 37 33
REMARK SMILES IDX 19 36 20 38 21 39 25 40 22 41 24 42 26 43 23 44
REMARK H PARENT 36 34 36 35 19 37
REMARK Flexibility Score: inf
ROOT
ATOM      1  N   UNL     1       0.083  -0.528   0.736  1.00  0.00    -0.250 N 
ATOM      2  C   UNL     1      -0.827  -0.143  -0.350  1.00  0.00     0.230 C 
ATOM      3  C   UNL     1      -0.617   1.412  -0.534  1.00  0.00     0.149 C 
ATOM      4  C   UNL     1       0.039   1.787   0.768  1.00  0.00     0.017 A 
ATOM      5  C   UNL     1       0.395   3.062   1.230  1.00  0.00     0.029 A 
ATOM      6  C   UNL     1       1.116   3.161   2.431  1.00  0.00     0.041 A 
ATOM      7  Cl  UNL     1       1.557   4.739   3.054  1.00  0.00    -0.084 Cl
ATOM      8  C   UNL     1       1.501   1.999   3.129  1.00  0.00     0.023 A 
ATOM      9  C   UNL     1       1.191   0.732   2.610  1.00  0.00     0.029 A 
ATOM     10  C   UNL     1       0.456   0.657   1.424  1.00  0.00     0.060 A 
ENDROOT
BRANCH   1  11
ATOM     11  S   UNL     1       1.152  -1.890   0.616  1.00  0.00     0.265 S 
ATOM     12  O   UNL     1       0.684  -2.825  -0.464  1.00  0.00    -0.201 OA
ATOM     13  O   UNL     1       1.167  -2.640   1.920  1.00  0.00    -0.201 OA
BRANCH  11  14
ATOM     14  C   UNL     1       2.767  -1.315   0.210  1.00  0.00     0.092 A 
ATOM     15  C   UNL     1       5.301  -0.273  -0.431  1.00  0.00     0.160 A 
ATOM     16  C   UNL     1       4.329  -0.449  -1.432  1.00  0.00     0.052 A 
ATOM     17  C   UNL     1       4.996  -0.608   0.898  1.00  0.00     0.162 A 
ATOM     18  C   UNL     1       3.071  -0.965  -1.110  1.00  0.00     0.026 A 
ATOM     19  C   UNL     1       3.731  -1.139   1.212  1.00  0.00     0.072 A 
BRANCH  15  20
ATOM     20  O   UNL     1       6.579   0.231  -0.717  1.00  0.00    -0.493 OA
ATOM     21  C   UNL     1       7.045   0.533  -2.032  1.00  0.00     0.278 C 
ENDBRANCH  15  20
BRANCH  17  22
ATOM     22  O   UNL     1       5.974  -0.394   1.881  1.00  0.00    -0.493 OA
ATOM     23  C   UNL     1       5.792  -0.658   3.268  1.00  0.00     0.278 C 
ENDBRANCH  17  22
ENDBRANCH  11  14
ENDBRANCH   1  11
BRANCH   2  24
ATOM     24  C   UNL     1      -2.237  -0.506   0.073  1.00  0.00     0.250 C 
ATOM     25  O   UNL     1      -2.712   0.023   1.113  1.00  0.00    -0.272 OA
BRANCH  24  26
ATOM     26  N   UNL     1      -3.043  -1.440  -0.673  1.00  0.00    -0.329 N 
ATOM     27  C   UNL     1      -2.509  -2.603  -1.366  1.00  0.00     0.120 C 
ATOM     28  C   UNL     1      -4.495  -1.391  -0.695  1.00  0.00     0.174 C 
ATOM     29  C   UNL     1      -3.724  -3.414  -1.793  1.00  0.00     0.024 C 
ATOM     30  C   UNL     1      -4.912  -2.464  -1.699  1.00  0.00     0.037 C 
BRANCH  28  31
ATOM     31  C   UNL     1      -5.085  -1.665   0.668  1.00  0.00     0.240 C 
ATOM     32  N   UNL     1      -4.478  -2.594   1.574  1.00  0.00    -0.368 N 
ATOM     33  O   UNL     1      -6.162  -1.097   0.995  1.00  0.00    -0.273 OA
ATOM     34  H   UNL     1      -4.945  -2.799   2.494  1.00  0.00     0.159 HD
ATOM     35  H   UNL     1      -3.606  -3.110   1.328  1.00  0.00     0.159 HD
ENDBRANCH  28  31
ENDBRANCH  24  26
ENDBRANCH   2  24
BRANCH   3  36
ATOM     36  O   UNL     1       0.318   1.673  -1.562  1.00  0.00    -0.377 OA
ATOM     37  H   UNL     1       1.116   1.103  -1.421  1.00  0.00     0.212 HD
ENDBRANCH   3  36
BRANCH   3  38
ATOM     38  C   UNL     1      -1.915   2.177  -0.847  1.00  0.00     0.009 A 
ATOM     39  C   UNL     1      -2.629   2.857   0.163  1.00  0.00     0.009 A 
ATOM     40  C   UNL     1      -2.470   2.158  -2.155  1.00  0.00     0.047 A 
ATOM     41  C   UNL     1      -3.783   3.587  -0.135  1.00  0.00     0.001 A 
ATOM     42  C   UNL     1      -3.616   2.909  -2.442  1.00  0.00     0.021 A 
ATOM     43  Cl  UNL     1      -1.797   1.174  -3.456  1.00  0.00    -0.084 Cl
ATOM     44  C   UNL     1      -4.259   3.634  -1.439  1.00  0.00     0.002 A 
ENDBRANCH   3  38
TORSDOF 9
