REMARK SMILES CCN(CC)CCNC(=O)c1cc(S(C)(=O)=O)ccc1OC
REMARK SMILES IDX 7 1 6 2 3 3 2 4 1 5 4 6 5 7 8 8 9 9 10 11 11 12 12 13 20 14
REMARK SMILES IDX 13 15 19 16 18 17 21 18 22 19 14 20 15 21 16 22 17 23
REMARK H PARENT 8 10
REMARK Flexibility Score: inf
ROOT
ATOM      1  C   UNL     1      -1.827   1.814  -0.781  1.00  0.00     0.131 C 
ENDROOT
BRANCH   1   2
ATOM      2  C   UNL     1      -3.118   1.116  -1.245  1.00  0.00     0.105 C 
BRANCH   2   3
ATOM      3  N   UNL     1      -3.833   0.345  -0.198  1.00  0.00    -0.302 NA
BRANCH   3   4
ATOM      4  C   UNL     1      -3.294  -0.991   0.135  1.00  0.00     0.081 C 
ATOM      5  C   UNL     1      -3.340  -1.944  -1.059  1.00  0.00     0.021 C 
ENDBRANCH   3   4
BRANCH   3   6
ATOM      6  C   UNL     1      -4.308   1.142   0.959  1.00  0.00     0.081 C 
ATOM      7  C   UNL     1      -3.405   1.058   2.201  1.00  0.00     0.021 C 
ENDBRANCH   3   6
ENDBRANCH   2   3
ENDBRANCH   1   2
BRANCH   1   8
ATOM      8  N   UNL     1      -0.747   0.861  -0.526  1.00  0.00    -0.351 N 
ATOM      9  C   UNL     1       0.385   1.216   0.285  1.00  0.00     0.255 C 
ATOM     10  H   UNL     1      -0.656   0.044  -1.170  1.00  0.00     0.163 HD
ATOM     11  O   UNL     1       0.379   2.301   0.929  1.00  0.00    -0.269 OA
BRANCH   9  12
ATOM     12  C   UNL     1       1.593   0.360   0.330  1.00  0.00     0.083 A 
ATOM     13  C   UNL     1       2.858   0.974   0.322  1.00  0.00     0.038 A 
ATOM     14  C   UNL     1       1.506  -1.049   0.395  1.00  0.00     0.131 A 
ATOM     15  C   UNL     1       4.027   0.207   0.346  1.00  0.00     0.068 A 
ATOM     16  C   UNL     1       2.690  -1.812   0.401  1.00  0.00     0.048 A 
ATOM     17  C   UNL     1       3.938  -1.187   0.372  1.00  0.00     0.024 A 
BRANCH  14  18
ATOM     18  O   UNL     1       0.243  -1.657   0.480  1.00  0.00    -0.496 OA
ATOM     19  C   UNL     1       0.026  -3.061   0.574  1.00  0.00     0.278 C 
ENDBRANCH  14  18
BRANCH  15  20
ATOM     20  S   UNL     1       5.602   0.994   0.301  1.00  0.00     0.175 S 
ATOM     21  C   UNL     1       6.073   1.272  -1.391  1.00  0.00     0.163 C 
ATOM     22  O   UNL     1       5.534   2.307   1.028  1.00  0.00    -0.224 OA
ATOM     23  O   UNL     1       6.628   0.124   0.971  1.00  0.00    -0.224 OA
ENDBRANCH  15  20
ENDBRANCH   9  12
ENDBRANCH   1   8
TORSDOF 8
