REMARK SMILES Cc1cc2c(C(C)C)c(O)c(O)c(C=O)c2c(O)c1-c1c(C)cc2c(C(C)C)c(O)c(O)c(C=O)c2c1O
REMARK SMILES IDX 5 1 4 2 3 3 2 4 1 5 19 6 17 7 16 8 13 9 11 10 9 11 6 12 7 13
REMARK SMILES IDX 8 14 10 15 12 17 18 19 14 21 15 22 20 23 37 24 21 25 36 26
REMARK SMILES IDX 23 27 22 28 33 29 24 30 31 31 25 32 29 33 38 34 34 36 35 37
REMARK SMILES IDX 32 38 26 40 27 41 28 42 30 43
REMARK H PARENT 10 16 12 18 18 20 38 35 32 39 30 44
REMARK Flexibility Score: inf
ROOT
ATOM      1  C   UNL     1       4.992   0.319   0.090  1.00  0.00     0.008 A 
ATOM      2  C   UNL     1       3.568   0.198   0.076  1.00  0.00    -0.006 A 
ATOM      3  C   UNL     1       2.827   0.474  -1.095  1.00  0.00     0.013 A 
ATOM      4  C   UNL     1       1.434   0.430  -1.114  1.00  0.00    -0.039 A 
ATOM      5  C   UNL     1       0.699   0.753  -2.393  1.00  0.00     0.045 C 
ATOM      6  C   UNL     1       0.736   0.057   0.045  1.00  0.00     0.031 A 
ATOM      7  C   UNL     1       1.444  -0.310   1.210  1.00  0.00     0.132 A 
ATOM      8  C   UNL     1       2.872  -0.248   1.241  1.00  0.00     0.039 A 
ATOM      9  C   UNL     1       3.629  -0.655   2.382  1.00  0.00     0.072 A 
ATOM     10  C   UNL     1       5.038  -0.678   2.319  1.00  0.00     0.169 A 
ATOM     11  C   UNL     1       5.705  -0.234   1.174  1.00  0.00     0.162 A 
ENDROOT
BRANCH   1  12
ATOM     12  C   UNL     1       5.759   1.015  -1.050  1.00  0.00     0.017 C 
ATOM     13  C   UNL     1       6.308  -0.012  -2.046  1.00  0.00     0.012 C 
ATOM     14  C   UNL     1       6.865   1.970  -0.565  1.00  0.00     0.012 C 
ENDBRANCH   1  12
BRANCH  11  15
ATOM     15  O   UNL     1       7.097  -0.339   1.111  1.00  0.00    -0.504 OA
ATOM     16  H   UNL     1       7.656  -0.733   1.858  1.00  0.00     0.293 HD
ENDBRANCH  11  15
BRANCH  10  17
ATOM     17  O   UNL     1       5.814  -1.112   3.401  1.00  0.00    -0.504 OA
ATOM     18  H   UNL     1       5.438  -1.379   4.301  1.00  0.00     0.293 HD
ENDBRANCH  10  17
BRANCH   7  19
ATOM     19  O   UNL     1       0.727  -0.752   2.328  1.00  0.00    -0.507 OA
ATOM     20  H   UNL     1      -0.282  -0.833   2.359  1.00  0.00     0.293 HD
ENDBRANCH   7  19
BRANCH   9  21
ATOM     21  C   UNL     1       2.982  -1.067   3.644  1.00  0.00     0.264 C 
ATOM     22  O   UNL     1       3.121  -2.240   4.082  1.00  0.00    -0.298 OA
ENDBRANCH   9  21
BRANCH   6  23
ATOM     23  C   UNL     1      -0.750   0.018   0.027  1.00  0.00     0.031 A 
ATOM     24  C   UNL     1      -1.426  -1.160  -0.360  1.00  0.00     0.132 A 
ATOM     25  C   UNL     1      -1.479   1.154   0.412  1.00  0.00    -0.039 A 
ATOM     26  C   UNL     1      -2.853  -1.205  -0.361  1.00  0.00     0.039 A 
ATOM     27  C   UNL     1      -2.872   1.140   0.322  1.00  0.00     0.013 A 
ATOM     28  C   UNL     1      -0.779   2.399   0.899  1.00  0.00     0.045 C 
ATOM     29  C   UNL     1      -3.582  -2.409  -0.598  1.00  0.00     0.072 A 
ATOM     30  C   UNL     1      -3.577   0.004  -0.130  1.00  0.00    -0.006 A 
ATOM     31  C   UNL     1      -4.993  -2.386  -0.599  1.00  0.00     0.169 A 
ATOM     32  C   UNL     1      -4.990   0.043  -0.328  1.00  0.00     0.008 A 
ATOM     33  C   UNL     1      -5.684  -1.176  -0.476  1.00  0.00     0.162 A 
BRANCH  24  34
ATOM     34  O   UNL     1      -0.682  -2.273  -0.766  1.00  0.00    -0.507 OA
ATOM     35  H   UNL     1       0.330  -2.300  -0.786  1.00  0.00     0.293 HD
ENDBRANCH  24  34
BRANCH  29  36
ATOM     36  C   UNL     1      -2.905  -3.714  -0.750  1.00  0.00     0.264 C 
ATOM     37  O   UNL     1      -3.116  -4.431  -1.764  1.00  0.00    -0.298 OA
ENDBRANCH  29  36
BRANCH  31  38
ATOM     38  O   UNL     1      -5.745  -3.563  -0.700  1.00  0.00    -0.504 OA
ATOM     39  H   UNL     1      -5.349  -4.493  -0.682  1.00  0.00     0.293 HD
ENDBRANCH  31  38
BRANCH  32  40
ATOM     40  C   UNL     1      -5.763   1.373  -0.372  1.00  0.00     0.017 C 
ATOM     41  C   UNL     1      -6.446   1.654   0.970  1.00  0.00     0.012 C 
ATOM     42  C   UNL     1      -6.761   1.470  -1.541  1.00  0.00     0.012 C 
ENDBRANCH  32  40
BRANCH  33  43
ATOM     43  O   UNL     1      -7.082  -1.186  -0.474  1.00  0.00    -0.504 OA
ATOM     44  H   UNL     1      -7.629  -2.032  -0.573  1.00  0.00     0.293 HD
ENDBRANCH  33  43
ENDBRANCH   6  23
TORSDOF 11
