REMARK SMILES O=C(O)c1cc(O)c2c(c1)C(=O)c1cccc(O)c1C2=O
REMARK SMILES IDX 4 1 10 2 9 3 8 4 6 5 5 6 20 7 21 8 19 9 13 10 14 11 15 12
REMARK SMILES IDX 16 13 17 14 11 15 12 16 2 17 1 18 3 19 7 21 18 23
REMARK H PARENT 3 20 7 22 18 24
REMARK Flexibility Score: inf
ROOT
ATOM      1  C   UNL     1       3.098  -0.674  -0.185  1.00  0.00     0.064 A 
ATOM      2  C   UNL     1       1.916  -1.396   0.035  1.00  0.00     0.029 A 
ATOM      3  C   UNL     1       0.681  -0.737   0.152  1.00  0.00     0.038 A 
ATOM      4  C   UNL     1       0.623   0.671   0.061  1.00  0.00     0.076 A 
ATOM      5  C   UNL     1       1.808   1.394  -0.227  1.00  0.00     0.128 A 
ATOM      6  C   UNL     1       3.029   0.719  -0.320  1.00  0.00     0.062 A 
ATOM      7  C   UNL     1      -0.674   1.341   0.338  1.00  0.00     0.201 C 
ATOM      8  O   UNL     1      -0.689   2.502   0.827  1.00  0.00    -0.288 OA
ATOM      9  C   UNL     1      -1.941   0.574   0.216  1.00  0.00     0.076 A 
ATOM     10  C   UNL     1      -1.879  -0.835   0.306  1.00  0.00     0.037 A 
ATOM     11  C   UNL     1      -3.067  -1.586   0.332  1.00  0.00     0.013 A 
ATOM     12  C   UNL     1      -4.305  -0.951   0.258  1.00  0.00     0.005 A 
ATOM     13  C   UNL     1      -4.373   0.434   0.126  1.00  0.00     0.047 A 
ATOM     14  C   UNL     1      -3.206   1.204   0.076  1.00  0.00     0.127 A 
ATOM     15  C   UNL     1      -0.564  -1.514   0.366  1.00  0.00     0.194 C 
ATOM     16  O   UNL     1      -0.504  -2.758   0.574  1.00  0.00    -0.289 OA
ENDROOT
BRANCH   1  17
ATOM     17  C   UNL     1       4.400  -1.370  -0.296  1.00  0.00     0.335 C 
ATOM     18  O   UNL     1       4.466  -2.625  -0.185  1.00  0.00    -0.246 OA
BRANCH  17  19
ATOM     19  O   UNL     1       5.567  -0.645  -0.524  1.00  0.00    -0.478 OA
ATOM     20  H   UNL     1       6.463  -1.112  -0.601  1.00  0.00     0.297 HD
ENDBRANCH  17  19
ENDBRANCH   1  17
BRANCH   5  21
ATOM     21  O   UNL     1       1.813   2.770  -0.463  1.00  0.00    -0.507 OA
ATOM     22  H   UNL     1       0.977   3.312  -0.634  1.00  0.00     0.293 HD
ENDBRANCH   5  21
BRANCH  14  23
ATOM     23  O   UNL     1      -3.347   2.576  -0.146  1.00  0.00    -0.507 OA
ATOM     24  H   UNL     1      -2.582   3.181  -0.408  1.00  0.00     0.293 HD
ENDBRANCH  14  23
TORSDOF 4
