REMARK SMILES CCCCCCC(=O)Oc1ccc2c(c1)CC[C@@H]1[C@@H]2CC[C@]2(C)[C@@H](OC(=O)CCCCCC)CC[C@@H]12
REMARK SMILES IDX 24 1 34 2 35 3 36 4 18 5 17 6 16 7 14 8 15 9 10 10 11 11
REMARK SMILES IDX 12 12 13 13 19 14 20 15 21 16 22 17 23 18 25 19 26 20 27 21
REMARK SMILES IDX 28 22 29 23 30 24 31 25 32 26 33 27 9 28 7 29 8 30 6 31 5 32
REMARK SMILES IDX 4 33 3 34 2 35 1 36
REMARK H PARENT
REMARK Flexibility Score: inf
ROOT
ATOM      1  C   UNL     1      -3.993   0.249   1.230  1.00  0.00     0.182 C 
ATOM      2  C   UNL     1      -3.870  -0.756   2.394  1.00  0.00     0.046 C 
ATOM      3  C   UNL     1      -2.370  -0.990   2.627  1.00  0.00     0.008 C 
ATOM      4  C   UNL     1      -1.699   0.071   1.767  1.00  0.00     0.002 C 
ATOM      5  C   UNL     1      -0.211  -0.096   1.403  1.00  0.00     0.001 C 
ATOM      6  C   UNL     1       0.640  -0.273   2.678  1.00  0.00     0.009 C 
ATOM      7  C   UNL     1       2.155  -0.031   2.485  1.00  0.00     0.036 C 
ATOM      8  C   UNL     1       2.585   0.319   1.078  1.00  0.00    -0.041 A 
ATOM      9  C   UNL     1       3.927   0.112   0.713  1.00  0.00     0.051 A 
ATOM     10  C   UNL     1       4.409   0.546  -0.533  1.00  0.00     0.131 A 
ATOM     11  C   UNL     1       3.533   1.184  -1.413  1.00  0.00     0.047 A 
ATOM     12  C   UNL     1       2.199   1.401  -1.063  1.00  0.00     0.008 A 
ATOM     13  C   UNL     1       1.700   0.955   0.179  1.00  0.00    -0.041 A 
ATOM     14  C   UNL     1       0.252   1.159   0.606  1.00  0.00     0.023 C 
ATOM     15  C   UNL     1      -0.709   1.491  -0.580  1.00  0.00     0.009 C 
ATOM     16  C   UNL     1      -2.207   1.508  -0.189  1.00  0.00     0.011 C 
ATOM     17  C   UNL     1      -2.609   0.210   0.541  1.00  0.00     0.008 C 
ATOM     18  C   UNL     1      -2.542  -1.004  -0.438  1.00  0.00     0.015 C 
ENDROOT
BRANCH   1  19
ATOM     19  O   UNL     1      -5.068  -0.129   0.366  1.00  0.00    -0.462 OA
BRANCH  19  20
ATOM     20  C   UNL     1      -5.744   0.770  -0.469  1.00  0.00     0.306 C 
ATOM     21  O   UNL     1      -5.400   1.981  -0.531  1.00  0.00    -0.252 OA
BRANCH  20  22
ATOM     22  C   UNL     1      -6.925   0.293  -1.251  1.00  0.00     0.123 C 
BRANCH  22  23
ATOM     23  C   UNL     1      -8.213   0.509  -0.447  1.00  0.00     0.012 C 
BRANCH  23  24
ATOM     24  C   UNL     1      -9.436  -0.008  -1.212  1.00  0.00     0.001 C 
BRANCH  24  25
ATOM     25  C   UNL     1     -10.723   0.198  -0.394  1.00  0.00    -0.000 C 
BRANCH  25  26
ATOM     26  C   UNL     1     -11.990  -0.184  -1.175  1.00  0.00    -0.003 C 
ATOM     27  C   UNL     1     -12.139  -1.695  -1.345  1.00  0.00     0.004 C 
ENDBRANCH  25  26
ENDBRANCH  24  25
ENDBRANCH  23  24
ENDBRANCH  22  23
ENDBRANCH  20  22
ENDBRANCH  19  20
ENDBRANCH   1  19
BRANCH  10  28
ATOM     28  O   UNL     1       5.733   0.337  -0.957  1.00  0.00    -0.427 OA
BRANCH  28  29
ATOM     29  C   UNL     1       6.849   0.146  -0.130  1.00  0.00     0.311 C 
ATOM     30  O   UNL     1       6.812   0.428   1.097  1.00  0.00    -0.252 OA
BRANCH  29  31
ATOM     31  C   UNL     1       8.133  -0.318  -0.743  1.00  0.00     0.123 C 
BRANCH  31  32
ATOM     32  C   UNL     1       9.158   0.824  -0.790  1.00  0.00     0.012 C 
BRANCH  32  33
ATOM     33  C   UNL     1      10.385   0.499  -1.661  1.00  0.00     0.001 C 
BRANCH  33  34
ATOM     34  C   UNL     1      11.175  -0.750  -1.230  1.00  0.00    -0.000 C 
BRANCH  34  35
ATOM     35  C   UNL     1      11.770  -0.627   0.182  1.00  0.00    -0.003 C 
ATOM     36  C   UNL     1      12.671  -1.816   0.502  1.00  0.00     0.004 C 
ENDBRANCH  34  35
ENDBRANCH  33  34
ENDBRANCH  32  33
ENDBRANCH  31  32
ENDBRANCH  29  31
ENDBRANCH  28  29
ENDBRANCH  10  28
TORSDOF 14
