REMARK SMILES CCN(CC)c1ccc(C(=C2C=CC(=[N+](CC)CC)C=C2)c2cc(O)c(S(=O)(=O)O)cc2S(=O)(=O)O)cc1
REMARK SMILES IDX 10 1 11 2 12 3 13 4 14 5 20 6 21 7 15 8 9 9 6 10 7 11 38 12
REMARK SMILES IDX 8 13 37 14 3 15 2 16 1 17 4 18 5 19 22 20 32 21 23 22 31 23
REMARK SMILES IDX 24 24 26 25 33 26 34 27 35 28 36 29 25 31 27 33 28 34 29 35
REMARK SMILES IDX 30 36 16 38 17 39 18 40 19 41
REMARK H PARENT 36 30 25 32 30 37
REMARK Flexibility Score: inf
ROOT
ATOM      1  C   UNL     1      -0.203   0.647  -0.371  1.00  0.00    -0.002 C 
ATOM      2  C   UNL     1      -1.352  -0.063  -0.544  1.00  0.00    -0.017 C 
ATOM      3  C   UNL     1      -2.683   0.586  -0.427  1.00  0.00     0.015 C 
ATOM      4  C   UNL     1      -3.814  -0.108  -0.566  1.00  0.00     0.079 C 
ATOM      5  C   UNL     1      -3.810  -1.577  -0.853  1.00  0.00     0.199 C 
ATOM      6  C   UNL     1      -2.464  -2.208  -1.018  1.00  0.00     0.079 C 
ATOM      7  C   UNL     1      -1.335  -1.509  -0.880  1.00  0.00     0.015 C 
ATOM      8  N   UNL     1      -4.935  -2.276  -0.971  1.00  0.00    -0.231 N 
ENDROOT
BRANCH   1   9
ATOM      9  C   UNL     1       1.136   0.003  -0.347  1.00  0.00    -0.017 A 
ATOM     10  C   UNL     1       3.726  -1.119  -0.221  1.00  0.00     0.037 A 
ATOM     11  C   UNL     1       3.432  -0.097  -1.141  1.00  0.00     0.026 A 
ATOM     12  C   UNL     1       2.705  -1.576   0.632  1.00  0.00     0.026 A 
ATOM     13  C   UNL     1       2.153   0.462  -1.198  1.00  0.00     0.011 A 
ATOM     14  C   UNL     1       1.427  -1.017   0.573  1.00  0.00     0.011 A 
BRANCH  10  15
ATOM     15  N   UNL     1       5.058  -1.676  -0.136  1.00  0.00    -0.372 N 
BRANCH  15  16
ATOM     16  C   UNL     1       6.242  -0.800  -0.172  1.00  0.00     0.113 C 
ATOM     17  C   UNL     1       6.255   0.141   1.030  1.00  0.00     0.027 C 
ENDBRANCH  15  16
BRANCH  15  18
ATOM     18  C   UNL     1       5.247  -3.128   0.011  1.00  0.00     0.113 C 
ATOM     19  C   UNL     1       5.718  -3.478   1.422  1.00  0.00     0.027 C 
ENDBRANCH  15  18
ENDBRANCH  10  15
ENDBRANCH   1   9
BRANCH   1  20
ATOM     20  C   UNL     1      -0.229   2.127  -0.256  1.00  0.00     0.008 A 
ATOM     21  C   UNL     1       0.002   2.792   0.970  1.00  0.00     0.103 A 
ATOM     22  C   UNL     1      -0.461   2.880  -1.416  1.00  0.00     0.057 A 
ATOM     23  C   UNL     1       0.016   4.194   0.998  1.00  0.00     0.050 A 
ATOM     24  C   UNL     1      -0.453   4.277  -1.383  1.00  0.00     0.137 A 
ATOM     25  C   UNL     1      -0.208   4.945  -0.165  1.00  0.00     0.137 A 
BRANCH  21  26
ATOM     26  S   UNL     1       0.269   1.907   2.480  1.00  0.00     0.295 S 
ATOM     27  O   UNL     1       0.035   2.814   3.657  1.00  0.00    -0.194 OA
ATOM     28  O   UNL     1      -0.688   0.751   2.572  1.00  0.00    -0.194 OA
BRANCH  26  29
ATOM     29  O   UNL     1       1.855   1.352   2.523  1.00  0.00    -0.282 OA
ATOM     30  H   UNL     1       1.876   0.691   3.261  1.00  0.00     0.234 HD
ENDBRANCH  26  29
ENDBRANCH  21  26
BRANCH  24  31
ATOM     31  O   UNL     1      -0.686   4.961  -2.578  1.00  0.00    -0.506 OA
ATOM     32  H   UNL     1      -0.685   5.969  -2.652  1.00  0.00     0.293 HD
ENDBRANCH  24  31
BRANCH  25  33
ATOM     33  S   UNL     1      -0.182   6.711  -0.072  1.00  0.00     0.298 S 
ATOM     34  O   UNL     1       0.066   7.161   1.341  1.00  0.00    -0.194 OA
ATOM     35  O   UNL     1       0.921   7.237  -0.947  1.00  0.00    -0.194 OA
BRANCH  33  36
ATOM     36  O   UNL     1      -1.670   7.316  -0.574  1.00  0.00    -0.282 OA
ATOM     37  H   UNL     1      -1.460   8.053  -1.203  1.00  0.00     0.234 HD
ENDBRANCH  33  36
ENDBRANCH  25  33
ENDBRANCH   1  20
BRANCH   8  38
ATOM     38  C   UNL     1      -4.929  -3.732  -1.244  1.00  0.00     0.347 C 
ATOM     39  C   UNL     1      -4.610  -4.531   0.020  1.00  0.00     0.083 C 
ENDBRANCH   8  38
BRANCH   8  40
ATOM     40  C   UNL     1      -6.268  -1.637  -0.858  1.00  0.00     0.347 C 
ATOM     41  C   UNL     1      -6.658  -1.425   0.605  1.00  0.00     0.083 C 
ENDBRANCH   8  40
TORSDOF 12
