REMARK SMILES CN1C[C@H](CNC(=O)OCc2ccccc2)C[C@@H]2c3cccc4c3c(cn4C)C[C@H]21
REMARK SMILES IDX 6 1 7 2 8 3 5 5 4 6 30 7 29 8 18 9 2 10 25 11 19 12 17 13
REMARK SMILES IDX 3 14 1 15 26 16 24 17 20 18 27 19 23 20 21 21 28 22 22 23
REMARK SMILES IDX 9 24 10 25 11 26 12 27 16 28 13 29 15 30 14 31
REMARK H PARENT 6 4
REMARK Flexibility Score: inf
ROOT
ATOM      1  N   UNL     1       2.226   1.536   0.315  1.00  0.00    -0.321 N 
ATOM      2  C   UNL     1       3.644   1.561   0.122  1.00  0.00     0.407 C 
ATOM      3  O   UNL     1       4.415   1.758   1.101  1.00  0.00    -0.225 OA
ATOM      4  H   UNL     1       1.630   1.373  -0.525  1.00  0.00     0.167 HD
ENDROOT
BRANCH   1   5
ATOM      5  C   UNL     1       1.634   1.720   1.643  1.00  0.00     0.124 C 
BRANCH   5   6
ATOM      6  C   UNL     1       0.093   1.616   1.642  1.00  0.00     0.023 C 
ATOM      7  C   UNL     1      -2.528   1.336   0.373  1.00  0.00     0.068 C 
ATOM      8  C   UNL     1      -4.093   1.260   0.322  1.00  0.00     0.057 C 
ATOM      9  C   UNL     1      -1.931   0.166   1.246  1.00  0.00     0.038 C 
ATOM     10  N   UNL     1      -2.044   2.645   0.895  1.00  0.00    -0.302 NA
ATOM     11  C   UNL     1      -4.519  -0.134  -0.015  1.00  0.00    -0.021 A 
ATOM     12  C   UNL     1      -2.477  -1.191   0.810  1.00  0.00    -0.034 A 
ATOM     13  C   UNL     1      -0.395   0.224   1.208  1.00  0.00     0.016 C 
ATOM     14  C   UNL     1      -0.569   2.718   0.795  1.00  0.00     0.090 C 
ATOM     15  C   UNL     1      -2.623   3.784   0.155  1.00  0.00     0.105 C 
ATOM     16  C   UNL     1      -5.726  -0.647  -0.478  1.00  0.00     0.090 A 
ATOM     17  C   UNL     1      -3.736  -1.209   0.245  1.00  0.00     0.006 A 
ATOM     18  C   UNL     1      -1.899  -2.453   1.095  1.00  0.00     0.005 A 
ATOM     19  N   UNL     1      -5.653  -2.006  -0.525  1.00  0.00    -0.350 N 
ATOM     20  C   UNL     1      -4.427  -2.337  -0.064  1.00  0.00     0.048 A 
ATOM     21  C   UNL     1      -2.592  -3.646   0.762  1.00  0.00     0.002 A 
ATOM     22  C   UNL     1      -6.738  -2.918  -0.873  1.00  0.00     0.149 C 
ATOM     23  C   UNL     1      -3.878  -3.597   0.180  1.00  0.00     0.027 A 
ENDBRANCH   5   6
ENDBRANCH   1   5
BRANCH   2  24
ATOM     24  O   UNL     1       4.161   1.365  -1.163  1.00  0.00    -0.445 OA
BRANCH  24  25
ATOM     25  C   UNL     1       5.558   1.313  -1.445  1.00  0.00     0.270 C 
BRANCH  25  26
ATOM     26  C   UNL     1       6.149   0.027  -0.933  1.00  0.00    -0.011 A 
ATOM     27  C   UNL     1       5.802  -1.193  -1.536  1.00  0.00     0.007 A 
ATOM     28  C   UNL     1       7.024   0.029   0.167  1.00  0.00     0.007 A 
ATOM     29  C   UNL     1       6.331  -2.393  -1.052  1.00  0.00     0.000 A 
ATOM     30  C   UNL     1       7.550  -1.174   0.648  1.00  0.00     0.000 A 
ATOM     31  C   UNL     1       7.205  -2.384   0.039  1.00  0.00     0.000 A 
ENDBRANCH  25  26
ENDBRANCH  24  25
ENDBRANCH   2  24
TORSDOF 5
