REMARK SMILES C[N+]1(C)CCC(=C(c2ccccc2)c2ccccc2)CC1
REMARK SMILES IDX 1 1 2 2 3 3 4 4 5 5 6 6 20 7 21 8 7 9 8 10 9 11 13 12 10 13
REMARK SMILES IDX 12 14 11 15 14 16 15 17 19 18 16 19 18 20 17 21
REMARK H PARENT
REMARK Flexibility Score: inf
ROOT
ATOM      1  C   UNL     1      -4.314  -0.263  -0.597  1.00  0.00     0.334 C 
ATOM      2  N   UNL     1      -3.297  -0.004   0.453  1.00  0.00    -0.328 N 
ATOM      3  C   UNL     1      -4.014   0.253   1.726  1.00  0.00     0.334 C 
ATOM      4  C   UNL     1      -2.514   1.218   0.072  1.00  0.00     0.268 C 
ATOM      5  C   UNL     1      -1.073   1.210   0.605  1.00  0.00     0.093 C 
ATOM      6  C   UNL     1      -0.335  -0.000   0.071  1.00  0.00    -0.051 C 
ATOM      7  C   UNL     1      -1.181  -1.212  -0.259  1.00  0.00     0.093 C 
ATOM      8  C   UNL     1      -2.440  -1.224   0.621  1.00  0.00     0.268 C 
ATOM      9  C   UNL     1       1.014   0.001  -0.102  1.00  0.00    -0.011 C 
ENDROOT
BRANCH   9  10
ATOM     10  C   UNL     1       1.714  -1.117  -0.779  1.00  0.00    -0.018 A 
ATOM     11  C   UNL     1       1.392  -1.469  -2.102  1.00  0.00     0.009 A 
ATOM     12  C   UNL     1       2.746  -1.803  -0.117  1.00  0.00     0.009 A 
ATOM     13  C   UNL     1       2.075  -2.509  -2.740  1.00  0.00     0.001 A 
ATOM     14  C   UNL     1       3.426  -2.843  -0.759  1.00  0.00     0.001 A 
ATOM     15  C   UNL     1       3.088  -3.198  -2.068  1.00  0.00     0.000 A 
ENDBRANCH   9  10
BRANCH   9  16
ATOM     16  C   UNL     1       1.860   1.122   0.378  1.00  0.00    -0.018 A 
ATOM     17  C   UNL     1       2.689   1.811  -0.522  1.00  0.00     0.009 A 
ATOM     18  C   UNL     1       1.882   1.472   1.740  1.00  0.00     0.009 A 
ATOM     19  C   UNL     1       3.506   2.852  -0.072  1.00  0.00     0.001 A 
ATOM     20  C   UNL     1       2.701   2.513   2.186  1.00  0.00     0.001 A 
ATOM     21  C   UNL     1       3.510   3.205   1.280  1.00  0.00     0.000 A 
ENDBRANCH   9  16
TORSDOF 2
