REMARK SMILES COc1ccc2c(c1)c(CC(=O)OCC(=O)O)c(C)n2C(=O)c1ccc(Cl)cc1
REMARK SMILES IDX 11 1 12 2 10 3 9 4 3 5 8 6 4 7 7 8 5 9 6 10 20 11 18 12
REMARK SMILES IDX 19 13 2 14 1 15 21 16 22 17 23 18 24 19 29 20 25 21 28 22
REMARK SMILES IDX 26 23 27 24 13 25 14 26 15 27 16 28 17 29
REMARK H PARENT 17 30
REMARK Flexibility Score: inf
ROOT
ATOM      1  C   UNL     1       3.283   0.587   0.682  1.00  0.00     0.310 C 
ATOM      2  O   UNL     1       4.067  -0.267   0.184  1.00  0.00    -0.252 OA
ENDROOT
BRANCH   1   3
ATOM      3  C   UNL     1       2.489   0.243   1.900  1.00  0.00     0.160 C 
BRANCH   3   4
ATOM      4  C   UNL     1       1.051   0.024   1.528  1.00  0.00    -0.008 A 
ATOM      5  C   UNL     1       0.266  -3.367   0.144  1.00  0.00     0.119 A 
ATOM      6  C   UNL     1       1.083  -2.355   0.681  1.00  0.00     0.057 A 
ATOM      7  C   UNL     1      -1.117  -3.114  -0.069  1.00  0.00     0.048 A 
ATOM      8  C   UNL     1       0.503  -1.122   0.982  1.00  0.00     0.008 A 
ATOM      9  C   UNL     1      -1.673  -1.861   0.244  1.00  0.00     0.031 A 
ATOM     10  C   UNL     1      -0.827  -0.874   0.758  1.00  0.00     0.057 A 
ATOM     11  N   UNL     1      -1.144   0.388   1.124  1.00  0.00    -0.280 N 
ATOM     12  C   UNL     1       0.004   0.949   1.586  1.00  0.00     0.028 A 
ATOM     13  C   UNL     1       0.113   2.351   2.113  1.00  0.00     0.065 C 
BRANCH   5  14
ATOM     14  O   UNL     1       0.856  -4.602  -0.162  1.00  0.00    -0.497 OA
ATOM     15  C   UNL     1       0.156  -5.712  -0.717  1.00  0.00     0.278 C 
ENDBRANCH   5  14
BRANCH  11  16
ATOM     16  C   UNL     1      -2.442   1.003   1.073  1.00  0.00     0.262 C 
ATOM     17  O   UNL     1      -2.929   1.492   2.128  1.00  0.00    -0.268 OA
BRANCH  16  18
ATOM     18  C   UNL     1      -3.202   1.088  -0.197  1.00  0.00     0.040 A 
ATOM     19  C   UNL     1      -4.586   1.338  -0.182  1.00  0.00     0.015 A 
ATOM     20  C   UNL     1      -2.549   0.944  -1.435  1.00  0.00     0.015 A 
ATOM     21  C   UNL     1      -5.304   1.425  -1.379  1.00  0.00     0.021 A 
ATOM     22  C   UNL     1      -3.270   1.032  -2.629  1.00  0.00     0.021 A 
ATOM     23  C   UNL     1      -4.647   1.271  -2.603  1.00  0.00     0.041 A 
ATOM     24  Cl  UNL     1      -5.549   1.383  -4.103  1.00  0.00    -0.084 Cl
ENDBRANCH  16  18
ENDBRANCH  11  16
ENDBRANCH   3   4
ENDBRANCH   1   3
BRANCH   1  25
ATOM     25  O   UNL     1       3.110   1.840   0.079  1.00  0.00    -0.453 OA
BRANCH  25  26
ATOM     26  C   UNL     1       3.839   2.259  -1.071  1.00  0.00     0.355 C 
BRANCH  26  27
ATOM     27  C   UNL     1       5.259   2.554  -0.708  1.00  0.00     0.341 C 
ATOM     28  O   UNL     1       6.193   1.848  -1.174  1.00  0.00    -0.248 OA
BRANCH  27  29
ATOM     29  O   UNL     1       5.546   3.608   0.153  1.00  0.00    -0.479 OA
ATOM     30  H   UNL     1       6.502   3.819   0.416  1.00  0.00     0.296 HD
ENDBRANCH  27  29
ENDBRANCH  26  27
ENDBRANCH  25  26
ENDBRANCH   1  25
TORSDOF 9
