REMARK SMILES O=C(O)CCn1c2c(c3ccccc31)C[C@H](NS(=O)(=O)c1ccc(F)cc1)CC2
REMARK SMILES IDX 16 1 28 2 29 3 7 4 8 5 15 6 9 7 10 8 11 9 12 10 13 11 14 12
REMARK SMILES IDX 6 13 17 14 18 16 19 17 20 18 21 19 22 20 27 21 23 22 26 23
REMARK SMILES IDX 24 24 25 25 5 26 4 27 2 28 1 29 3 30
REMARK H PARENT 17 15 3 31
REMARK Flexibility Score: inf
ROOT
ATOM      1  C   UNL     1       1.135   0.816   1.311  1.00  0.00     0.074 C 
ATOM      2  C   UNL     1      -0.092   1.762   1.430  1.00  0.00     0.027 C 
ATOM      3  C   UNL     1      -1.069   1.577   0.253  1.00  0.00     0.056 C 
ATOM      4  C   UNL     1      -1.318   0.118  -0.010  1.00  0.00     0.022 A 
ATOM      5  C   UNL     1      -0.474  -0.883   0.442  1.00  0.00    -0.018 A 
ATOM      6  C   UNL     1       0.689  -0.660   1.361  1.00  0.00     0.058 C 
ATOM      7  C   UNL     1      -1.015  -2.068  -0.007  1.00  0.00     0.003 A 
ATOM      8  C   UNL     1      -0.617  -3.389   0.191  1.00  0.00     0.010 A 
ATOM      9  C   UNL     1      -1.398  -4.403  -0.391  1.00  0.00     0.001 A 
ATOM     10  C   UNL     1      -2.549  -4.078  -1.143  1.00  0.00     0.002 A 
ATOM     11  C   UNL     1      -2.931  -2.736  -1.321  1.00  0.00     0.027 A 
ATOM     12  C   UNL     1      -2.135  -1.743  -0.739  1.00  0.00     0.049 A 
ATOM     13  N   UNL     1      -2.319  -0.402  -0.765  1.00  0.00    -0.344 N 
ENDROOT
BRANCH   1  14
ATOM     14  N   UNL     1       2.112   1.051   2.390  1.00  0.00    -0.208 NA
ATOM     15  H   UNL     1       1.644   1.451   3.236  1.00  0.00     0.141 HD
BRANCH  14  16
ATOM     16  S   UNL     1       3.364   2.151   1.889  1.00  0.00     0.240 S 
ATOM     17  O   UNL     1       4.264   2.445   3.056  1.00  0.00    -0.207 OA
ATOM     18  O   UNL     1       2.749   3.437   1.410  1.00  0.00    -0.207 OA
BRANCH  16  19
ATOM     19  C   UNL     1       4.316   1.413   0.604  1.00  0.00     0.082 A 
ATOM     20  C   UNL     1       4.672   2.148  -0.537  1.00  0.00     0.025 A 
ATOM     21  C   UNL     1       4.714   0.074   0.717  1.00  0.00     0.025 A 
ATOM     22  C   UNL     1       5.414   1.545  -1.556  1.00  0.00     0.040 A 
ATOM     23  C   UNL     1       5.458  -0.527  -0.303  1.00  0.00     0.040 A 
ATOM     24  C   UNL     1       5.807   0.208  -1.441  1.00  0.00     0.123 A 
ATOM     25  F   UNL     1       6.526  -0.376  -2.431  1.00  0.00    -0.207 F 
ENDBRANCH  16  19
ENDBRANCH  14  16
ENDBRANCH   1  14
BRANCH  13  26
ATOM     26  C   UNL     1      -3.422   0.330  -1.393  1.00  0.00     0.134 C 
BRANCH  26  27
ATOM     27  C   UNL     1      -4.623   0.387  -0.448  1.00  0.00     0.144 C 
BRANCH  27  28
ATOM     28  C   UNL     1      -5.757   1.125  -1.084  1.00  0.00     0.305 C 
ATOM     29  O   UNL     1      -5.862   2.372  -0.935  1.00  0.00    -0.252 OA
BRANCH  28  30
ATOM     30  O   UNL     1      -6.674   0.440  -1.874  1.00  0.00    -0.481 OA
ATOM     31  H   UNL     1      -7.439   0.927  -2.324  1.00  0.00     0.296 HD
ENDBRANCH  28  30
ENDBRANCH  27  28
ENDBRANCH  26  27
ENDBRANCH  13  26
TORSDOF 7
