REMARK SMILES C=CCC1=C(C)C(OC(=O)C2C(C=C(C)C)C2(C)C)CC1=O
REMARK SMILES IDX 8 1 9 2 10 3 11 4 12 5 17 6 18 7 19 8 13 9 15 10 14 11 16 12
REMARK SMILES IDX 7 13 20 14 5 15 21 16 4 17 6 18 22 19 3 20 2 21 1 22
REMARK H PARENT
REMARK Flexibility Score: inf
ROOT
ATOM      1  O   UNL     1       0.705  -1.332  -1.730  1.00  0.00    -0.457 OA
ENDROOT
BRANCH   1   2
ATOM      2  C   UNL     1      -0.458  -1.955  -1.270  1.00  0.00     0.310 C 
ATOM      3  O   UNL     1      -0.399  -3.062  -0.669  1.00  0.00    -0.252 OA
BRANCH   2   4
ATOM      4  C   UNL     1      -1.800  -1.370  -1.608  1.00  0.00     0.113 C 
ATOM      5  C   UNL     1      -2.677  -0.859  -0.445  1.00  0.00     0.033 C 
ATOM      6  C   UNL     1      -2.014   0.140  -1.406  1.00  0.00    -0.014 C 
ATOM      7  C   UNL     1      -0.848   1.011  -0.894  1.00  0.00     0.012 C 
ATOM      8  C   UNL     1      -2.964   0.804  -2.407  1.00  0.00     0.012 C 
BRANCH   5   9
ATOM      9  C   UNL     1      -2.128  -0.904   0.965  1.00  0.00    -0.023 C 
ATOM     10  C   UNL     1      -3.644   0.943   1.679  1.00  0.00     0.039 C 
ATOM     11  C   UNL     1      -2.562  -0.078   1.939  1.00  0.00    -0.080 C 
ATOM     12  C   UNL     1      -1.955  -0.194   3.312  1.00  0.00     0.039 C 
ENDBRANCH   5   9
ENDBRANCH   2   4
ENDBRANCH   1   2
BRANCH   1  13
ATOM     13  C   UNL     1       2.024  -1.683  -1.309  1.00  0.00     0.210 C 
ATOM     14  C   UNL     1       3.035  -1.093  -2.309  1.00  0.00     0.130 C 
ATOM     15  C   UNL     1       2.347  -0.999  -0.002  1.00  0.00    -0.026 C 
ATOM     16  C   UNL     1       3.650   0.017  -1.543  1.00  0.00     0.163 C 
ATOM     17  C   UNL     1       3.220  -0.009  -0.162  1.00  0.00     0.002 C 
ATOM     18  C   UNL     1       1.736  -1.377   1.316  1.00  0.00     0.044 C 
ATOM     19  O   UNL     1       4.461   0.851  -2.027  1.00  0.00    -0.294 OA
BRANCH  17  20
ATOM     20  C   UNL     1       3.666   0.963   0.898  1.00  0.00     0.066 C 
BRANCH  20  21
ATOM     21  C   UNL     1       2.572   1.945   1.217  1.00  0.00    -0.030 C 
ATOM     22  C   UNL     1       2.148   2.842   0.322  1.00  0.00     0.004 C 
ENDBRANCH  20  21
ENDBRANCH  17  20
ENDBRANCH   1  13
TORSDOF 6
