REMARK SMILES C[C@H]1C[C@H]2[C@@H]3CCC4=CC(=O)C=C[C@]4(C)[C@@]3(F)C(=O)C[C@]2(C)[C@@]1(O)C(=O)CCl
REMARK SMILES IDX 2 1 1 2 3 3 4 4 5 5 6 6 7 7 8 8 9 9 10 10 11 11 12 12 13 13
REMARK SMILES IDX 14 14 15 15 16 16 17 17 18 18 19 19 20 20 21 21 22 22 23 23
REMARK SMILES IDX 24 24 25 26 26 27 27 28 28 29
REMARK H PARENT 24 25
REMARK Flexibility Score: inf
ROOT
ATOM      1  C   UNL     1      -2.936   1.721   0.302  1.00  0.00     0.026 C 
ATOM      2  C   UNL     1      -4.031   1.584   1.371  1.00  0.00     0.011 C 
ATOM      3  C   UNL     1      -1.532   1.757   0.949  1.00  0.00     0.011 C 
ATOM      4  C   UNL     1      -0.645   0.972  -0.010  1.00  0.00     0.006 C 
ATOM      5  C   UNL     1       0.727   0.466   0.510  1.00  0.00     0.040 C 
ATOM      6  C   UNL     1       1.576   1.619   1.076  1.00  0.00     0.012 C 
ATOM      7  C   UNL     1       2.904   1.097   1.624  1.00  0.00     0.032 C 
ATOM      8  C   UNL     1       3.635   0.290   0.577  1.00  0.00    -0.053 C 
ATOM      9  C   UNL     1       4.955   0.486   0.415  1.00  0.00     0.052 C 
ATOM     10  C   UNL     1       5.702  -0.250  -0.604  1.00  0.00     0.178 C 
ATOM     11  O   UNL     1       6.947  -0.097  -0.712  1.00  0.00    -0.290 OA
ATOM     12  C   UNL     1       4.986  -1.129  -1.523  1.00  0.00     0.048 C 
ATOM     13  C   UNL     1       3.680  -1.351  -1.366  1.00  0.00    -0.008 C 
ATOM     14  C   UNL     1       2.881  -0.836  -0.162  1.00  0.00     0.049 C 
ATOM     15  C   UNL     1       2.725  -2.018   0.824  1.00  0.00     0.024 C 
ATOM     16  C   UNL     1       1.495  -0.257  -0.657  1.00  0.00     0.184 C 
ATOM     17  F   UNL     1       1.786   0.699  -1.624  1.00  0.00    -0.234 F 
ATOM     18  C   UNL     1       0.551  -1.260  -1.340  1.00  0.00     0.172 C 
ATOM     19  O   UNL     1       0.888  -2.407  -1.587  1.00  0.00    -0.296 OA
ATOM     20  C   UNL     1      -0.830  -0.799  -1.759  1.00  0.00     0.089 C 
ATOM     21  C   UNL     1      -1.555  -0.159  -0.545  1.00  0.00     0.014 C 
ATOM     22  C   UNL     1      -1.778  -1.280   0.517  1.00  0.00     0.016 C 
ATOM     23  C   UNL     1      -2.877   0.652  -0.857  1.00  0.00     0.132 C 
ENDROOT
BRANCH  23  24
ATOM     24  O   UNL     1      -2.653   1.414  -2.034  1.00  0.00    -0.381 OA
ATOM     25  H   UNL     1      -2.663   0.816  -2.826  1.00  0.00     0.212 HD
ENDBRANCH  23  24
BRANCH  23  26
ATOM     26  C   UNL     1      -4.188  -0.163  -1.074  1.00  0.00     0.179 C 
ATOM     27  O   UNL     1      -4.780  -0.027  -2.136  1.00  0.00    -0.295 OA
BRANCH  26  28
ATOM     28  C   UNL     1      -4.865  -1.066  -0.069  1.00  0.00     0.188 C 
ATOM     29  Cl  UNL     1      -5.026  -2.713  -0.733  1.00  0.00    -0.118 Cl
ENDBRANCH  26  28
ENDBRANCH  23  26
TORSDOF 3
