REMARK SMILES CC(=O)OCC(=O)[C@@]1(O)[C@H](C)C[C@H]2[C@@H]3C=C(C)C4=Cc5c(cnn5-c5ccccc5)C[C@]4(C)[C@H]3[C@@H](O)C[C@@]21C
REMARK SMILES IDX 5 1 6 2 7 3 8 4 11 5 10 6 12 7 13 8 38 9 14 10 37 11 39 12
REMARK SMILES IDX 15 13 34 14 35 15 16 16 32 17 17 18 18 19 31 20 33 21 19 22
REMARK SMILES IDX 21 23 20 24 22 25 24 26 23 27 9 28 36 30 25 32 26 33 30 34
REMARK SMILES IDX 27 35 29 36 28 37 4 38 2 39 1 40 3 41
REMARK H PARENT 9 29 36 31
REMARK Flexibility Score: inf
ROOT
ATOM      1  C   UNL     1       6.067  -1.089  -1.449  1.00  0.00     0.311 C 
ENDROOT
BRANCH   1   2
ATOM      2  C   UNL     1       5.293   0.107  -0.953  1.00  0.00     0.202 C 
ATOM      3  O   UNL     1       5.693   1.215  -1.281  1.00  0.00    -0.293 OA
BRANCH   2   4
ATOM      4  C   UNL     1       4.060  -0.024  -0.035  1.00  0.00     0.134 C 
ATOM      5  C   UNL     1       4.823   0.573   2.382  1.00  0.00     0.011 C 
ATOM      6  C   UNL     1       4.092   1.044   1.115  1.00  0.00     0.026 C 
ATOM      7  C   UNL     1       2.621   1.435   1.399  1.00  0.00     0.011 C 
ATOM      8  C   UNL     1       1.792   0.533   0.487  1.00  0.00     0.006 C 
ATOM      9  C   UNL     1       2.687   0.284  -0.740  1.00  0.00     0.010 C 
ATOM     10  C   UNL     1       0.350   0.959   0.117  1.00  0.00     0.022 C 
ATOM     11  C   UNL     1       2.058  -0.880  -1.559  1.00  0.00     0.042 C 
ATOM     12  C   UNL     1       2.828   1.550  -1.655  1.00  0.00     0.015 C 
ATOM     13  C   UNL     1      -0.465   1.235   1.361  1.00  0.00    -0.019 C 
ATOM     14  C   UNL     1      -0.295  -0.184  -0.725  1.00  0.00     0.036 C 
ATOM     15  C   UNL     1       0.578  -0.612  -1.956  1.00  0.00     0.119 C 
ATOM     16  C   UNL     1      -1.781   0.971   1.467  1.00  0.00    -0.051 C 
ATOM     17  C   UNL     1      -1.817   0.084  -1.012  1.00  0.00     0.003 C 
ATOM     18  C   UNL     1      -2.486   1.348   2.751  1.00  0.00     0.044 C 
ATOM     19  C   UNL     1      -2.526   0.296   0.353  1.00  0.00    -0.037 C 
ATOM     20  C   UNL     1      -2.417  -1.136  -1.799  1.00  0.00     0.051 C 
ATOM     21  C   UNL     1      -2.061   1.371  -1.845  1.00  0.00     0.017 C 
ATOM     22  C   UNL     1      -3.842  -0.003   0.495  1.00  0.00     0.033 C 
ATOM     23  C   UNL     1      -3.901  -1.158  -1.682  1.00  0.00    -0.001 A 
ATOM     24  C   UNL     1      -4.551  -0.699  -0.584  1.00  0.00     0.070 A 
ATOM     25  C   UNL     1      -4.872  -1.708  -2.491  1.00  0.00     0.140 A 
ATOM     26  N   UNL     1      -5.871  -0.944  -0.723  1.00  0.00    -0.233 N 
ATOM     27  N   UNL     1      -6.072  -1.550  -1.887  1.00  0.00    -0.176 NA
BRANCH   4  28
ATOM     28  O   UNL     1       4.027  -1.305   0.567  1.00  0.00    -0.381 OA
ATOM     29  H   UNL     1       4.039  -2.002  -0.135  1.00  0.00     0.212 HD
ENDBRANCH   4  28
BRANCH  15  30
ATOM     30  O   UNL     1       0.505   0.329  -2.992  1.00  0.00    -0.393 OA
ATOM     31  H   UNL     1       0.833  -0.118  -3.815  1.00  0.00     0.210 HD
ENDBRANCH  15  30
BRANCH  26  32
ATOM     32  C   UNL     1      -6.931  -0.622   0.190  1.00  0.00     0.065 A 
ATOM     33  C   UNL     1      -8.111  -0.033  -0.290  1.00  0.00     0.028 A 
ATOM     34  C   UNL     1      -6.827  -0.940   1.555  1.00  0.00     0.028 A 
ATOM     35  C   UNL     1      -9.156   0.270   0.589  1.00  0.00     0.002 A 
ATOM     36  C   UNL     1      -7.874  -0.637   2.431  1.00  0.00     0.002 A 
ATOM     37  C   UNL     1      -9.036  -0.028   1.949  1.00  0.00     0.000 A 
ENDBRANCH  26  32
ENDBRANCH   2   4
ENDBRANCH   1   2
BRANCH   1  38
ATOM     38  O   UNL     1       6.677  -1.782  -0.361  1.00  0.00    -0.458 OA
BRANCH  38  39
ATOM     39  C   UNL     1       7.735  -1.256   0.387  1.00  0.00     0.303 C 
ATOM     40  C   UNL     1       8.270  -2.027   1.545  1.00  0.00     0.139 C 
ATOM     41  O   UNL     1       8.264  -0.155   0.073  1.00  0.00    -0.253 OA
ENDBRANCH  38  39
ENDBRANCH   1  38
TORSDOF 7
