REMARK SMILES CN1CCN(/C=C2\N=C3CN=C(c4ccccc4Cl)c4cc([N+](=O)[O-])ccc4N3C2=O)CC1
REMARK SMILES IDX 20 1 28 2 27 3 26 4 22 5 21 6 29 7 6 8 7 9 8 10 30 11 9 12
REMARK SMILES IDX 31 13 5 15 4 16 32 17 3 18 33 19 2 20 1 21 12 22 11 23 13 24
REMARK SMILES IDX 14 25 18 26 15 27 17 28 19 29 16 30 10 31 23 33 25 34 24 35
REMARK H PARENT
REMARK Flexibility Score: 90.00
ROOT
ATOM      1  C   UNL     1      -2.984  -0.808  -0.292  1.00  0.00     0.031 A 
ATOM      2  C   UNL     1      -2.006  -1.580   0.385  1.00  0.00     0.060 A 
ATOM      3  C   UNL     1      -2.368  -2.817   0.942  1.00  0.00     0.034 A 
ATOM      4  C   UNL     1      -3.675  -3.292   0.839  1.00  0.00     0.088 A 
ATOM      5  C   UNL     1      -4.654  -2.543   0.173  1.00  0.00     0.270 A 
ATOM      6  C   UNL     1      -4.299  -1.304  -0.388  1.00  0.00     0.098 A 
ENDROOT
BRANCH   2   7
ATOM      7  N   UNL     1      -0.646  -1.128   0.477  1.00  0.00    -0.260 N 
ATOM      8  C   UNL     1       2.803  -1.070   1.532  1.00  0.00     0.115 C 
ATOM      9  C   UNL     1       1.621  -1.023   0.911  1.00  0.00     0.147 C 
ATOM     10  N   UNL     1       1.385  -0.462  -0.380  1.00  0.00    -0.226 NA
ATOM     11  C   UNL     1       0.343  -1.444   1.443  1.00  0.00     0.284 C 
ATOM     12  C   UNL     1       0.103  -0.544  -0.590  1.00  0.00     0.138 CG0
ATOM     13  O   UNL     1       0.122  -1.949   2.576  1.00  0.00    -0.266 OA
ATOM     14  G   UNL     1      -0.548  -0.091  -1.850  1.00  0.00     0.000 G0
BRANCH   8  15
ATOM     15  N   UNL     1       4.004  -0.577   0.919  1.00  0.00    -0.373 N 
ATOM     16  C   UNL     1       4.455  -1.089  -0.381  1.00  0.00     0.131 C 
ATOM     17  C   UNL     1       4.943   0.182   1.750  1.00  0.00     0.131 C 
ATOM     18  C   UNL     1       5.113   0.029  -1.218  1.00  0.00     0.105 C 
ATOM     19  C   UNL     1       6.090   0.743   0.904  1.00  0.00     0.105 C 
ATOM     20  N   UNL     1       5.557   1.181  -0.397  1.00  0.00    -0.303 NA
ATOM     21  C   UNL     1       6.559   1.974  -1.125  1.00  0.00     0.105 C 
ENDBRANCH   8  15
ENDBRANCH   2   7
BRANCH   1  22
ATOM     22  C   UNL     1      -2.699   0.559  -0.832  1.00  0.00     0.076 C 
ATOM     23  N   UNL     1      -1.628   0.833  -1.527  1.00  0.00    -0.276 NA
BRANCH  22  24
ATOM     24  C   UNL     1      -3.694   1.642  -0.651  1.00  0.00     0.019 A 
ATOM     25  C   UNL     1      -4.117   2.375  -1.773  1.00  0.00     0.012 A 
ATOM     26  C   UNL     1      -4.228   1.961   0.620  1.00  0.00     0.050 A 
ATOM     27  C   UNL     1      -5.069   3.389  -1.642  1.00  0.00     0.001 A 
ATOM     28  C   UNL     1      -5.182   2.979   0.739  1.00  0.00     0.021 A 
ATOM     29  Cl  UNL     1      -3.682   1.162   2.092  1.00  0.00    -0.084 Cl
ATOM     30  C   UNL     1      -5.604   3.688  -0.388  1.00  0.00     0.002 A 
ENDBRANCH  22  24
BRANCH  23  31
ATOM     31  C   UNL     1      -0.548  -0.091  -1.850  1.00  0.00     0.218 CG0
ATOM     32  G   UNL     1       0.103  -0.544  -0.590  1.00  0.00     0.000 G0
ENDBRANCH  23  31
ENDBRANCH   1  22
BRANCH   5  33
ATOM     33  N   UNL     1      -6.003  -3.037   0.069  1.00  0.00     0.062 N 
ATOM     34  O   UNL     1      -6.346  -4.251   0.619  1.00  0.00    -0.258 OA
ATOM     35  O   UNL     1      -6.882  -2.374  -0.519  1.00  0.00    -0.258 OA
ENDBRANCH   5  33
TORSDOF 3
