REMARK SMILES CC(C)(Oc1ccc(C(=O)c2ccc(Cl)cc2)cc1)C(=O)O
REMARK SMILES IDX 4 1 2 2 1 3 3 4 20 5 21 6 22 7 5 9 6 10 19 11 7 12 18 13
REMARK SMILES IDX 8 14 9 15 10 16 11 17 12 18 17 19 13 20 16 21 14 22 15 23
REMARK H PARENT 22 8
REMARK Flexibility Score: inf
ROOT
ATOM      1  O   UNL     1      -2.776   0.006  -0.778  1.00  0.00    -0.476 OA
ENDROOT
BRANCH   1   2
ATOM      2  C   UNL     1      -3.953   0.216   0.017  1.00  0.00     0.199 C 
ATOM      3  C   UNL     1      -3.803   1.505   0.853  1.00  0.00     0.069 C 
ATOM      4  C   UNL     1      -5.128   0.396  -0.953  1.00  0.00     0.069 C 
BRANCH   2   5
ATOM      5  C   UNL     1      -4.245  -0.993   0.878  1.00  0.00     0.347 C 
ATOM      6  O   UNL     1      -4.857  -0.869   1.974  1.00  0.00    -0.248 OA
BRANCH   5   7
ATOM      7  O   UNL     1      -3.895  -2.263   0.428  1.00  0.00    -0.478 OA
ATOM      8  H   UNL     1      -4.086  -3.082   0.992  1.00  0.00     0.296 HD
ENDBRANCH   5   7
ENDBRANCH   2   5
ENDBRANCH   1   2
BRANCH   1   9
ATOM      9  C   UNL     1      -1.461  -0.250  -0.340  1.00  0.00     0.121 A 
ATOM     10  C   UNL     1      -1.125  -0.522   1.001  1.00  0.00     0.047 A 
ATOM     11  C   UNL     1      -0.445  -0.244  -1.303  1.00  0.00     0.047 A 
ATOM     12  C   UNL     1       0.202  -0.783   1.358  1.00  0.00     0.016 A 
ATOM     13  C   UNL     1       0.883  -0.488  -0.946  1.00  0.00     0.016 A 
ATOM     14  C   UNL     1       1.218  -0.756   0.391  1.00  0.00     0.023 A 
BRANCH  14  15
ATOM     15  C   UNL     1       2.615  -1.052   0.777  1.00  0.00     0.193 C 
ATOM     16  O   UNL     1       2.835  -1.976   1.608  1.00  0.00    -0.289 OA
BRANCH  15  17
ATOM     17  C   UNL     1       3.762  -0.296   0.216  1.00  0.00     0.023 A 
ATOM     18  C   UNL     1       5.024  -0.905   0.111  1.00  0.00     0.014 A 
ATOM     19  C   UNL     1       3.621   1.051  -0.170  1.00  0.00     0.014 A 
ATOM     20  C   UNL     1       6.118  -0.187  -0.381  1.00  0.00     0.021 A 
ATOM     21  C   UNL     1       4.718   1.766  -0.659  1.00  0.00     0.021 A 
ATOM     22  C   UNL     1       5.967   1.148  -0.763  1.00  0.00     0.041 A 
ATOM     23  Cl  UNL     1       7.342   2.051  -1.370  1.00  0.00    -0.084 Cl
ENDBRANCH  15  17
ENDBRANCH  14  15
ENDBRANCH   1   9
TORSDOF 6
