REMARK SMILES CN(C)C(=O)COC(=O)Cc1ccc(OC(=O)c2ccc(NC(=N)N)cc2)cc1
REMARK SMILES IDX 11 1 12 2 13 3 14 4 28 5 29 6 10 7 8 8 9 9 7 10 6 11 4 12
REMARK SMILES IDX 1 13 2 14 3 15 5 16 15 17 16 18 17 19 18 20 19 21 27 22
REMARK SMILES IDX 20 23 26 24 21 25 22 26 23 27 25 29 24 30
REMARK H PARENT 22 28 25 31 25 32 24 33
REMARK Flexibility Score: inf
ROOT
ATOM      1  C   UNL     1      -2.131   2.210   0.367  1.00  0.00    -0.037 A 
ATOM      2  C   UNL     1      -1.391   1.902  -0.785  1.00  0.00     0.008 A 
ATOM      3  C   UNL     1      -0.019   1.651  -0.697  1.00  0.00     0.047 A 
ATOM      4  C   UNL     1       0.634   1.706   0.548  1.00  0.00     0.131 A 
ATOM      5  C   UNL     1      -0.113   1.981   1.700  1.00  0.00     0.047 A 
ATOM      6  C   UNL     1      -1.485   2.232   1.613  1.00  0.00     0.008 A 
ENDROOT
BRANCH   1   7
ATOM      7  C   UNL     1      -3.614   2.444   0.276  1.00  0.00     0.158 C 
BRANCH   7   8
ATOM      8  C   UNL     1      -4.344   1.145   0.383  1.00  0.00     0.310 C 
ATOM      9  O   UNL     1      -4.714   0.725   1.514  1.00  0.00    -0.252 OA
BRANCH   8  10
ATOM     10  O   UNL     1      -4.571   0.387  -0.771  1.00  0.00    -0.455 OA
BRANCH  10  11
ATOM     11  C   UNL     1      -5.245  -0.871  -0.761  1.00  0.00     0.332 C 
BRANCH  11  12
ATOM     12  C   UNL     1      -6.724  -0.701  -0.525  1.00  0.00     0.260 C 
ATOM     13  C   UNL     1      -7.025  -3.192  -0.193  1.00  0.00     0.146 C 
ATOM     14  N   UNL     1      -7.572  -1.831  -0.227  1.00  0.00    -0.346 N 
ATOM     15  C   UNL     1      -8.999  -1.605   0.027  1.00  0.00     0.146 C 
ATOM     16  O   UNL     1      -7.233   0.449  -0.633  1.00  0.00    -0.271 OA
ENDBRANCH  11  12
ENDBRANCH  10  11
ENDBRANCH   8  10
ENDBRANCH   7   8
ENDBRANCH   1   7
BRANCH   4  17
ATOM     17  O   UNL     1       2.006   1.449   0.689  1.00  0.00    -0.423 OA
BRANCH  17  18
ATOM     18  C   UNL     1       2.982   1.686  -0.290  1.00  0.00     0.343 C 
ATOM     19  O   UNL     1       2.738   2.450  -1.264  1.00  0.00    -0.246 OA
BRANCH  18  20
ATOM     20  C   UNL     1       4.325   1.081  -0.145  1.00  0.00     0.060 A 
ATOM     21  C   UNL     1       4.618   0.262   0.959  1.00  0.00     0.018 A 
ATOM     22  C   UNL     1       5.327   1.316  -1.103  1.00  0.00     0.018 A 
ATOM     23  C   UNL     1       5.884  -0.315   1.099  1.00  0.00     0.027 A 
ATOM     24  C   UNL     1       6.592   0.738  -0.962  1.00  0.00     0.027 A 
ATOM     25  C   UNL     1       6.876  -0.096   0.128  1.00  0.00     0.041 A 
BRANCH  25  26
ATOM     26  N   UNL     1       8.193  -0.657   0.265  1.00  0.00    -0.327 N 
ATOM     27  C   UNL     1       8.484  -1.904   0.916  1.00  0.00     0.190 C 
ATOM     28  H   UNL     1       8.999  -0.117  -0.125  1.00  0.00     0.170 HD
ATOM     29  N   UNL     1       9.758  -2.094   1.531  1.00  0.00    -0.370 N 
ATOM     30  N   UNL     1       7.641  -2.889   0.886  1.00  0.00    -0.269 NA
ATOM     31  H   UNL     1      10.459  -1.322   1.543  1.00  0.00     0.159 HD
ATOM     32  H   UNL     1      10.001  -3.006   1.978  1.00  0.00     0.159 HD
ATOM     33  H   UNL     1       6.718  -2.825   0.403  1.00  0.00     0.191 HD
ENDBRANCH  25  26
ENDBRANCH  18  20
ENDBRANCH  17  18
ENDBRANCH   4  17
TORSDOF 9
