REMARK SMILES NS(=O)(=O)c1ccc(-n2nc(C(F)(F)F)cc2-c2ccc(Cl)cc2)cc1
REMARK SMILES IDX 5 1 6 2 7 3 8 4 25 5 26 6 2 7 3 8 4 9 1 10 9 13 10 14 17 15
REMARK SMILES IDX 11 16 16 17 18 18 19 19 24 20 20 21 23 22 21 23 22 24 12 25
REMARK SMILES IDX 13 26 14 27 15 28
REMARK H PARENT 1 11 1 12
REMARK Flexibility Score: inf
ROOT
ATOM      1  C   UNL     1      -2.902  -1.259  -0.226  1.00  0.00     0.082 A 
ATOM      2  C   UNL     1      -2.788  -0.193  -1.128  1.00  0.00     0.024 A 
ATOM      3  C   UNL     1      -1.726   0.710  -1.021  1.00  0.00     0.030 A 
ATOM      4  C   UNL     1      -0.755   0.547  -0.022  1.00  0.00     0.065 A 
ATOM      5  C   UNL     1      -0.881  -0.514   0.891  1.00  0.00     0.030 A 
ATOM      6  C   UNL     1      -1.942  -1.416   0.783  1.00  0.00     0.024 A 
ENDROOT
BRANCH   1   7
ATOM      7  S   UNL     1      -4.233  -2.401  -0.372  1.00  0.00     0.238 S 
ATOM      8  O   UNL     1      -4.534  -3.010   0.969  1.00  0.00    -0.207 OA
ATOM      9  O   UNL     1      -3.855  -3.486  -1.341  1.00  0.00    -0.207 OA
BRANCH   7  10
ATOM     10  N   UNL     1      -5.646  -1.583  -0.943  1.00  0.00    -0.225 NA
ATOM     11  H   UNL     1      -6.421  -2.283  -0.958  1.00  0.00     0.137 HD
ATOM     12  H   UNL     1      -5.898  -0.869  -0.224  1.00  0.00     0.137 HD
ENDBRANCH   7  10
ENDBRANCH   1   7
BRANCH   4  13
ATOM     13  N   UNL     1       0.326   1.489   0.086  1.00  0.00    -0.233 N 
ATOM     14  N   UNL     1       0.146   2.796  -0.024  1.00  0.00    -0.163 NA
ATOM     15  C   UNL     1       1.629   1.239   0.368  1.00  0.00     0.075 A 
ATOM     16  C   UNL     1       1.329   3.395   0.211  1.00  0.00     0.167 A 
ATOM     17  C   UNL     1       2.300   2.443   0.457  1.00  0.00     0.064 A 
BRANCH  15  18
ATOM     18  C   UNL     1       2.272  -0.092   0.447  1.00  0.00     0.000 A 
ATOM     19  C   UNL     1       3.246  -0.344   1.428  1.00  0.00     0.012 A 
ATOM     20  C   UNL     1       1.951  -1.102  -0.476  1.00  0.00     0.012 A 
ATOM     21  C   UNL     1       3.864  -1.595   1.503  1.00  0.00     0.021 A 
ATOM     22  C   UNL     1       2.571  -2.353  -0.398  1.00  0.00     0.021 A 
ATOM     23  C   UNL     1       3.525  -2.602   0.593  1.00  0.00     0.041 A 
ATOM     24  Cl  UNL     1       4.302  -4.171   0.690  1.00  0.00    -0.084 Cl
ENDBRANCH  15  18
BRANCH  16  25
ATOM     25  C   UNL     1       1.557   4.869   0.100  1.00  0.00     0.435 C 
ATOM     26  F   UNL     1       0.364   5.547   0.276  1.00  0.00    -0.164 F 
ATOM     27  F   UNL     1       2.455   5.282   1.068  1.00  0.00    -0.164 F 
ATOM     28  F   UNL     1       2.067   5.162  -1.151  1.00  0.00    -0.164 F 
ENDBRANCH  16  25
ENDBRANCH   4  13
TORSDOF 5
