REMARK SMILES CCn1c(=O)c(-c2cc(NC(=O)Nc3ccccc3)c(F)cc2Br)cc2cnc(NC)cc21
REMARK SMILES IDX 7 1 23 2 24 3 22 4 20 5 21 6 9 7 8 8 6 9 3 10 4 11 33 12
REMARK SMILES IDX 5 13 26 14 32 15 25 16 27 17 29 18 28 19 2 20 1 21 30 22
REMARK SMILES IDX 31 23 10 25 11 26 12 28 13 29 14 31 15 32 19 33 16 34 18 35
REMARK SMILES IDX 17 36
REMARK H PARENT 30 24 10 27 13 30
REMARK Flexibility Score: inf
ROOT
ATOM      1  C   UNL     1      -0.095  -1.041  -0.996  1.00  0.00     0.004 A 
ATOM      2  C   UNL     1       0.161  -2.347  -1.457  1.00  0.00     0.029 A 
ATOM      3  Br  UNL     1      -1.244  -3.632  -1.698  1.00  0.00    -0.050 Br
ATOM      4  C   UNL     1       1.465  -2.718  -1.802  1.00  0.00     0.057 A 
ATOM      5  C   UNL     1       2.517  -1.806  -1.687  1.00  0.00     0.147 A 
ATOM      6  F   UNL     1       3.758  -2.179  -2.090  1.00  0.00    -0.205 F 
ATOM      7  C   UNL     1       2.274  -0.505  -1.213  1.00  0.00     0.079 A 
ATOM      8  C   UNL     1       0.963  -0.124  -0.894  1.00  0.00     0.039 A 
ENDROOT
BRANCH   1   9
ATOM      9  C   UNL     1      -1.461  -0.608  -0.627  1.00  0.00     0.049 A 
ATOM     10  N   UNL     1      -3.379  -0.706   0.849  1.00  0.00    -0.308 N 
ATOM     11  C   UNL     1      -2.107  -1.119   0.511  1.00  0.00     0.258 A 
ATOM     12  C   UNL     1      -4.056   0.188   0.035  1.00  0.00     0.056 A 
ATOM     13  O   UNL     1      -1.498  -1.964   1.226  1.00  0.00    -0.269 OA
ATOM     14  C   UNL     1      -3.408   0.734  -1.099  1.00  0.00     0.018 A 
ATOM     15  C   UNL     1      -5.394   0.584   0.281  1.00  0.00     0.073 A 
ATOM     16  C   UNL     1      -2.110   0.340  -1.412  1.00  0.00     0.026 A 
ATOM     17  C   UNL     1      -4.078   1.657  -1.912  1.00  0.00     0.123 A 
ATOM     18  C   UNL     1      -6.030   1.510  -0.565  1.00  0.00     0.127 A 
ATOM     19  N   UNL     1      -5.353   2.018  -1.628  1.00  0.00    -0.239 NA
BRANCH  10  20
ATOM     20  C   UNL     1      -3.996  -1.266   2.075  1.00  0.00     0.122 C 
ATOM     21  C   UNL     1      -4.843  -2.491   1.741  1.00  0.00     0.028 C 
ENDBRANCH  10  20
BRANCH  18  22
ATOM     22  N   UNL     1      -7.385   1.937  -0.344  1.00  0.00    -0.373 N 
ATOM     23  C   UNL     1      -8.217   1.467   0.759  1.00  0.00     0.141 C 
ATOM     24  H   UNL     1      -7.801   2.626  -1.011  1.00  0.00     0.161 HD
ENDBRANCH  18  22
ENDBRANCH   1   9
BRANCH   7  25
ATOM     25  N   UNL     1       3.332   0.461  -1.102  1.00  0.00    -0.305 N 
ATOM     26  C   UNL     1       4.603   0.177  -0.500  1.00  0.00     0.323 C 
ATOM     27  H   UNL     1       3.118   1.456  -1.340  1.00  0.00     0.171 HD
ATOM     28  O   UNL     1       4.792  -0.919   0.095  1.00  0.00    -0.248 OA
ATOM     29  N   UNL     1       5.656   1.149  -0.584  1.00  0.00    -0.308 N 
ATOM     30  H   UNL     1       5.556   1.908  -1.295  1.00  0.00     0.171 HD
BRANCH  29  31
ATOM     31  C   UNL     1       6.888   1.072   0.153  1.00  0.00     0.042 A 
ATOM     32  C   UNL     1       8.068   1.567  -0.424  1.00  0.00     0.026 A 
ATOM     33  C   UNL     1       6.929   0.566   1.467  1.00  0.00     0.026 A 
ATOM     34  C   UNL     1       9.275   1.523   0.282  1.00  0.00     0.002 A 
ATOM     35  C   UNL     1       8.137   0.524   2.169  1.00  0.00     0.002 A 
ATOM     36  C   UNL     1       9.310   0.998   1.576  1.00  0.00     0.000 A 
ENDBRANCH  29  31
ENDBRANCH   7  25
TORSDOF 5
