REMARK SMILES O.O.O.O.O.O.O.O.O.O.O=C([O-])CC([O-])(CC(=O)[O-])C(=O)[O-].O=C([O-])CC([O-])(CC(=O)[O-])C(=O)[O-].O=C([O-])CC([O-])(CC(=O)[O-])C(=O)[O-].[Fe+3].[Fe+3].[Fe+3].[Fe+3]
REMARK SMILES IDX 1 1
REMARK H PARENT 1 2 1 3
REMARK Flexibility Score: inf
ROOT
ATOM      1  O   UNL     1      -0.024   0.403   0.000  1.00  0.00    -0.412 OA
ATOM      2  H   UNL     1       0.793  -0.156   0.000  1.00  0.00     0.206 HD
ATOM      3  H   UNL     1      -0.770  -0.248   0.000  1.00  0.00     0.206 HD
ENDROOT
TORSDOF 0
