REMARK SMILES C[C@]12C=CC(=O)C=C1CC[C@@H]1[C@@H]2[C@@H](O)C[C@@]2(C)[C@H]1CC[C@]2(O)C(=O)COP(=O)(O)O
REMARK SMILES IDX 25 1 23 2 24 3 21 4 18 5 19 6 16 7 11 8 20 9 17 10 15 11
REMARK SMILES IDX 12 12 10 13 13 14 2 15 9 16 8 17 3 18 1 19 7 20 4 21 5 22
REMARK SMILES IDX 6 23 22 24 14 26 26 28 27 29 28 30 29 31 30 33
REMARK H PARENT 22 25 14 27 29 32 30 34
REMARK Flexibility Score: inf
ROOT
ATOM      1  C   UNL     1       4.862   0.509  -0.510  1.00  0.00     0.252 C 
ENDROOT
BRANCH   1   2
ATOM      2  C   UNL     1       3.448   0.494  -1.031  1.00  0.00     0.191 C 
ATOM      3  O   UNL     1       3.224   1.017  -2.114  1.00  0.00    -0.294 OA
BRANCH   2   4
ATOM      4  C   UNL     1       2.318  -0.251  -0.304  1.00  0.00     0.131 C 
ATOM      5  C   UNL     1       0.145  -0.313   0.677  1.00  0.00     0.002 C 
ATOM      6  C   UNL     1       1.088  -0.184   1.866  1.00  0.00     0.008 C 
ATOM      7  C   UNL     1       0.888   0.371  -0.481  1.00  0.00     0.009 C 
ATOM      8  C   UNL     1      -1.325   0.143   0.838  1.00  0.00    -0.000 C 
ATOM      9  C   UNL     1       2.496  -0.243   1.244  1.00  0.00     0.044 C 
ATOM     10  C   UNL     1       0.965   1.930  -0.316  1.00  0.00     0.015 C 
ATOM     11  C   UNL     1       0.146   0.006  -1.796  1.00  0.00     0.042 C 
ATOM     12  C   UNL     1      -2.093  -0.189  -0.492  1.00  0.00     0.035 C 
ATOM     13  C   UNL     1      -1.973  -0.578   2.040  1.00  0.00     0.009 C 
ATOM     14  C   UNL     1      -1.363   0.377  -1.761  1.00  0.00     0.119 C 
ATOM     15  C   UNL     1      -3.642   0.114  -0.403  1.00  0.00     0.013 C 
ATOM     16  C   UNL     1      -3.452  -0.226   2.176  1.00  0.00     0.032 C 
ATOM     17  C   UNL     1      -4.164  -0.542   0.887  1.00  0.00    -0.056 C 
ATOM     18  C   UNL     1      -4.341  -0.424  -1.654  1.00  0.00    -0.012 C 
ATOM     19  C   UNL     1      -3.968   1.625  -0.328  1.00  0.00     0.021 C 
ATOM     20  C   UNL     1      -5.199  -1.397   0.897  1.00  0.00     0.052 C 
ATOM     21  C   UNL     1      -5.366  -1.276  -1.620  1.00  0.00     0.048 C 
ATOM     22  C   UNL     1      -5.865  -1.787  -0.346  1.00  0.00     0.178 C 
ATOM     23  O   UNL     1      -6.858  -2.563  -0.318  1.00  0.00    -0.290 OA
BRANCH   4  24
ATOM     24  O   UNL     1       2.328  -1.600  -0.720  1.00  0.00    -0.381 OA
ATOM     25  H   UNL     1       2.407  -1.628  -1.710  1.00  0.00     0.212 HD
ENDBRANCH   4  24
BRANCH  14  26
ATOM     26  O   UNL     1      -1.523   1.767  -1.865  1.00  0.00    -0.393 OA
ATOM     27  H   UNL     1      -1.326   2.013  -2.807  1.00  0.00     0.210 HD
ENDBRANCH  14  26
ENDBRANCH   2   4
ENDBRANCH   1   2
BRANCH   1  28
ATOM     28  O   UNL     1       5.199  -0.774  -0.037  1.00  0.00    -0.279 OA
BRANCH  28  29
ATOM     29  P   UNL     1       6.831  -0.758   0.459  1.00  0.00     0.470 P 
ATOM     30  O   UNL     1       7.101  -1.994   1.285  1.00  0.00    -0.228 OA
BRANCH  29  31
ATOM     31  O   UNL     1       7.837  -0.766  -0.904  1.00  0.00    -0.303 OA
ATOM     32  H   UNL     1       7.515  -1.526  -1.451  1.00  0.00     0.223 HD
ENDBRANCH  29  31
BRANCH  29  33
ATOM     33  O   UNL     1       7.157   0.612   1.403  1.00  0.00    -0.303 OA
ATOM     34  H   UNL     1       7.777   1.154   0.855  1.00  0.00     0.223 HD
ENDBRANCH  29  33
ENDBRANCH  28  29
ENDBRANCH   1  28
TORSDOF 8
