REMARK SMILES N#Cc1ccnc(N2C(=O)CC[C@H]2C(=O)N(c2cncc(F)c2)[C@H](C(=O)NC2CC(F)(F)C2)c2ccccc2Cl)c1
REMARK SMILES IDX 14 1 15 2 16 3 24 4 25 5 26 6 27 7 28 9 29 10 33 11 30 12
REMARK SMILES IDX 31 13 32 14 34 15 39 16 35 17 40 18 38 19 36 20 37 21 17 22
REMARK SMILES IDX 23 23 18 24 21 25 19 26 22 27 20 28 13 29 12 30 8 31 11 32
REMARK SMILES IDX 9 33 10 34 7 35 6 36 41 37 5 38 3 39 4 40 2 41 1 42
REMARK H PARENT 27 8
REMARK Flexibility Score: inf
ROOT
ATOM      1  C   UNL     1      -0.417   0.439  -0.169  1.00  0.00     0.251 C 
ATOM      2  O   UNL     1       0.194   1.516   0.074  1.00  0.00    -0.272 OA
ENDROOT
BRANCH   1   3
ATOM      3  N   UNL     1       0.056  -0.800   0.398  1.00  0.00    -0.292 N 
BRANCH   3   4
ATOM      4  C   UNL     1       1.496  -1.156   0.355  1.00  0.00     0.211 C 
BRANCH   4   5
ATOM      5  C   UNL     1       2.294  -0.332  -0.639  1.00  0.00     0.248 C 
ATOM      6  O   UNL     1       2.229  -0.590  -1.872  1.00  0.00    -0.272 OA
ATOM      7  N   UNL     1       3.120   0.749  -0.182  1.00  0.00    -0.351 N 
ATOM      8  H   UNL     1       3.109   0.998   0.836  1.00  0.00     0.163 HD
BRANCH   7   9
ATOM      9  C   UNL     1       4.071   1.401  -1.094  1.00  0.00     0.094 C 
ATOM     10  C   UNL     1       3.379   2.340  -2.083  1.00  0.00     0.102 C 
ATOM     11  C   UNL     1       4.797   2.593  -0.465  1.00  0.00     0.102 C 
ATOM     12  C   UNL     1       4.105   3.521  -1.454  1.00  0.00     0.252 C 
ATOM     13  F   UNL     1       3.245   4.412  -0.841  1.00  0.00    -0.207 F 
ATOM     14  F   UNL     1       4.989   4.138  -2.321  1.00  0.00    -0.207 F 
ENDBRANCH   7   9
ENDBRANCH   4   5
BRANCH   4  15
ATOM     15  C   UNL     1       1.734  -2.636   0.073  1.00  0.00     0.003 A 
ATOM     16  C   UNL     1       1.182  -3.307  -1.050  1.00  0.00     0.046 A 
ATOM     17  C   UNL     1       2.710  -3.311   0.837  1.00  0.00     0.008 A 
ATOM     18  Cl  UNL     1      -0.064  -2.599  -2.073  1.00  0.00    -0.084 Cl
ATOM     19  C   UNL     1       1.607  -4.603  -1.373  1.00  0.00     0.021 A 
ATOM     20  C   UNL     1       3.130  -4.602   0.494  1.00  0.00     0.000 A 
ATOM     21  C   UNL     1       2.590  -5.240  -0.615  1.00  0.00     0.002 A 
ENDBRANCH   4  15
ENDBRANCH   3   4
BRANCH   3  22
ATOM     22  C   UNL     1      -0.738  -1.347   1.471  1.00  0.00     0.066 A 
ATOM     23  C   UNL     1      -1.060  -0.555   2.587  1.00  0.00     0.069 A 
ATOM     24  C   UNL     1      -1.209  -2.667   1.427  1.00  0.00     0.137 A 
ATOM     25  C   UNL     1      -1.867  -1.071   3.601  1.00  0.00     0.143 A 
ATOM     26  N   UNL     1      -1.978  -3.154   2.436  1.00  0.00    -0.259 NA
ATOM     27  F   UNL     1      -2.217  -0.295   4.661  1.00  0.00    -0.205 F 
ATOM     28  C   UNL     1      -2.323  -2.388   3.506  1.00  0.00     0.150 A 
ENDBRANCH   3  22
ENDBRANCH   1   3
BRANCH   1  29
ATOM     29  C   UNL     1      -1.620   0.456  -1.076  1.00  0.00     0.182 C 
ATOM     30  C   UNL     1      -1.178   0.574  -2.555  1.00  0.00     0.045 C 
ATOM     31  N   UNL     1      -2.441   1.638  -0.817  1.00  0.00    -0.284 N 
ATOM     32  C   UNL     1      -1.480   2.008  -3.005  1.00  0.00     0.103 C 
ATOM     33  C   UNL     1      -2.319   2.534  -1.914  1.00  0.00     0.228 C 
ATOM     34  O   UNL     1      -2.863   3.668  -1.946  1.00  0.00    -0.274 OA
BRANCH  31  35
ATOM     35  C   UNL     1      -3.271   1.870   0.338  1.00  0.00     0.137 A 
ATOM     36  N   UNL     1      -3.649   3.139   0.652  1.00  0.00    -0.239 NA
ATOM     37  C   UNL     1      -3.750   0.800   1.121  1.00  0.00     0.067 A 
ATOM     38  C   UNL     1      -4.475   3.415   1.696  1.00  0.00     0.115 A 
ATOM     39  C   UNL     1      -4.610   1.062   2.196  1.00  0.00     0.057 A 
ATOM     40  C   UNL     1      -4.979   2.378   2.482  1.00  0.00     0.040 A 
BRANCH  39  41
ATOM     41  C   UNL     1      -5.108  -0.015   3.014  1.00  0.00     0.099 C 
ATOM     42  N   UNL     1      -5.504  -0.880   3.673  1.00  0.00    -0.192 NA
ENDBRANCH  39  41
ENDBRANCH  31  35
ENDBRANCH   1  29
TORSDOF 9
