REMARK SMILES O.O.O=P([O-])([O-])O.[Ca+2]
REMARK SMILES IDX 1 1
REMARK H PARENT 1 2 1 3
REMARK Flexibility Score: inf
ROOT
ATOM      1  O   UNL     1       0.000   0.404   0.000  1.00  0.00    -0.412 OA
ATOM      2  H   UNL     1      -0.783  -0.201   0.000  1.00  0.00     0.206 HD
ATOM      3  H   UNL     1       0.783  -0.203   0.000  1.00  0.00     0.206 HD
ENDROOT
TORSDOF 0
