REMARK SMILES C[C@H]1C[C@H]2[C@@H]3CCC4=CC(=O)C=C[C@]4(C)[C@@]3(F)[C@@H](O)C[C@]2(C)[C@@]1(O)C(=O)COP(=O)(O)O
REMARK SMILES IDX 27 1 25 2 26 3 23 4 4 5 3 6 21 7 5 8 2 9 22 10 20 11 16 12
REMARK SMILES IDX 6 13 1 14 18 15 17 16 14 17 7 18 8 19 13 20 15 21 9 22 12 23
REMARK SMILES IDX 10 24 11 25 24 26 19 28 28 30 29 31 30 32 31 33 32 35
REMARK H PARENT 24 27 19 29 31 34 32 36
REMARK Flexibility Score: inf
ROOT
ATOM      1  C   UNL     1       4.104   1.647  -0.908  1.00  0.00     0.252 C 
ENDROOT
BRANCH   1   2
ATOM      2  C   UNL     1       3.211   1.327   0.268  1.00  0.00     0.191 C 
ATOM      3  O   UNL     1       3.139   2.138   1.176  1.00  0.00    -0.294 OA
BRANCH   2   4
ATOM      4  C   UNL     1       2.335   0.052   0.276  1.00  0.00     0.133 C 
ATOM      5  C   UNL     1       0.091  -0.836   0.624  1.00  0.00     0.005 C 
ATOM      6  C   UNL     1       0.780  -0.957   1.973  1.00  0.00     0.011 C 
ATOM      7  C   UNL     1       0.811   0.326  -0.095  1.00  0.00     0.010 C 
ATOM      8  C   UNL     1      -1.450  -0.722   0.591  1.00  0.00     0.035 C 
ATOM      9  C   UNL     1       2.276  -0.705   1.669  1.00  0.00     0.026 C 
ATOM     10  C   UNL     1       0.335   1.742   0.400  1.00  0.00     0.015 C 
ATOM     11  C   UNL     1       0.457   0.215  -1.606  1.00  0.00     0.045 C 
ATOM     12  C   UNL     1      -1.931  -0.846  -0.900  1.00  0.00     0.152 C 
ATOM     13  C   UNL     1      -2.121  -1.817   1.465  1.00  0.00     0.012 C 
ATOM     14  C   UNL     1       2.977  -0.085   2.894  1.00  0.00     0.011 C 
ATOM     15  C   UNL     1      -1.071   0.025  -1.918  1.00  0.00     0.154 C 
ATOM     16  F   UNL     1      -1.666  -2.166  -1.272  1.00  0.00    -0.239 F 
ATOM     17  C   UNL     1      -3.511  -0.680  -1.007  1.00  0.00     0.044 C 
ATOM     18  C   UNL     1      -3.652  -1.705   1.410  1.00  0.00     0.032 C 
ATOM     19  C   UNL     1      -4.137  -1.695  -0.032  1.00  0.00    -0.053 C 
ATOM     20  C   UNL     1      -3.951  -0.921  -2.457  1.00  0.00    -0.009 C 
ATOM     21  C   UNL     1      -4.053   0.717  -0.605  1.00  0.00     0.024 C 
ATOM     22  C   UNL     1      -5.213  -2.438  -0.374  1.00  0.00     0.052 C 
ATOM     23  C   UNL     1      -4.972  -1.713  -2.789  1.00  0.00     0.048 C 
ATOM     24  C   UNL     1      -5.693  -2.466  -1.757  1.00  0.00     0.178 C 
ATOM     25  O   UNL     1      -6.718  -3.137  -2.061  1.00  0.00    -0.290 OA
BRANCH   4  26
ATOM     26  O   UNL     1       2.936  -0.830  -0.651  1.00  0.00    -0.381 OA
ATOM     27  H   UNL     1       2.406  -1.669  -0.744  1.00  0.00     0.212 HD
ENDBRANCH   4  26
BRANCH  15  28
ATOM     28  O   UNL     1      -1.663   1.283  -2.205  1.00  0.00    -0.390 OA
ATOM     29  H   UNL     1      -1.458   1.505  -3.159  1.00  0.00     0.211 HD
ENDBRANCH  15  28
ENDBRANCH   2   4
ENDBRANCH   1   2
BRANCH   1  30
ATOM     30  O   UNL     1       4.652   2.951  -0.801  1.00  0.00    -0.279 OA
BRANCH  30  31
ATOM     31  P   UNL     1       6.264   2.851  -0.256  1.00  0.00     0.470 P 
ATOM     32  O   UNL     1       7.147   2.468  -1.425  1.00  0.00    -0.228 OA
BRANCH  31  33
ATOM     33  O   UNL     1       6.746   4.369   0.338  1.00  0.00    -0.303 OA
ATOM     34  H   UNL     1       6.047   4.620   1.005  1.00  0.00     0.223 HD
ENDBRANCH  31  33
BRANCH  31  35
ATOM     35  O   UNL     1       6.417   1.693   0.985  1.00  0.00    -0.303 OA
ATOM     36  H   UNL     1       7.376   1.685   1.200  1.00  0.00     0.223 HD
ENDBRANCH  31  35
ENDBRANCH  30  31
ENDBRANCH   1  30
TORSDOF 8
