REMARK SMILES CC(=O)Oc1c(C)c(C)c2c(c1C)CC[C@@](C)(CCC[C@H](C)CCC[C@H](C)CCCC(C)C)O2
REMARK SMILES IDX 23 1 24 2 25 3 26 4 27 5 28 6 29 7 30 8 31 9 32 10 33 11
REMARK SMILES IDX 21 12 22 13 20 14 19 15 18 16 16 17 17 18 15 19 34 20 14 21
REMARK SMILES IDX 10 22 11 23 8 24 12 25 6 26 9 27 13 28 5 29 7 30 4 31 2 32
REMARK SMILES IDX 1 33 3 34
REMARK H PARENT
REMARK Flexibility Score: inf
ROOT
ATOM      1  C   UNL     1       2.781  -0.432   1.620  1.00  0.00     0.003 C 
ENDROOT
BRANCH   1   2
ATOM      2  C   UNL     1       3.531   0.148   0.404  1.00  0.00     0.001 C 
BRANCH   2   3
ATOM      3  C   UNL     1       4.424  -0.887  -0.306  1.00  0.00     0.003 C 
BRANCH   3   4
ATOM      4  C   UNL     1       5.186  -0.297  -1.516  1.00  0.00    -0.014 C 
ATOM      5  C   UNL     1       5.926  -1.411  -2.274  1.00  0.00     0.007 C 
BRANCH   4   6
ATOM      6  C   UNL     1       6.142   0.875  -1.168  1.00  0.00     0.003 C 
BRANCH   6   7
ATOM      7  C   UNL     1       7.108   0.595   0.004  1.00  0.00     0.001 C 
BRANCH   7   8
ATOM      8  C   UNL     1       8.194   1.691   0.123  1.00  0.00     0.003 C 
BRANCH   8   9
ATOM      9  C   UNL     1       9.591   1.227  -0.358  1.00  0.00    -0.017 C 
ATOM     10  C   UNL     1      10.630   2.328  -0.095  1.00  0.00     0.007 C 
ATOM     11  C   UNL     1       9.598   0.844  -1.842  1.00  0.00     0.007 C 
ENDBRANCH   8   9
ENDBRANCH   7   8
ENDBRANCH   6   7
ENDBRANCH   4   6
ENDBRANCH   3   4
ENDBRANCH   2   3
ENDBRANCH   1   2
BRANCH   1  12
ATOM     12  C   UNL     1       1.733  -1.536   1.312  1.00  0.00    -0.014 C 
ATOM     13  C   UNL     1       1.200  -2.097   2.644  1.00  0.00     0.007 C 
BRANCH  12  14
ATOM     14  C   UNL     1       0.568  -0.999   0.442  1.00  0.00     0.003 C 
BRANCH  14  15
ATOM     15  C   UNL     1      -0.374  -2.113  -0.079  1.00  0.00     0.004 C 
BRANCH  15  16
ATOM     16  C   UNL     1      -1.811  -2.059   0.497  1.00  0.00     0.048 C 
BRANCH  16  17
ATOM     17  C   UNL     1      -2.805  -1.007  -0.101  1.00  0.00     0.107 C 
ATOM     18  C   UNL     1      -2.671  -0.890  -1.636  1.00  0.00     0.056 C 
ATOM     19  C   UNL     1      -2.630   0.378   0.572  1.00  0.00     0.053 C 
ATOM     20  O   UNL     1      -4.119  -1.493   0.186  1.00  0.00    -0.487 OA
ATOM     21  C   UNL     1      -3.773   1.344   0.234  1.00  0.00     0.044 C 
ATOM     22  C   UNL     1      -5.264  -0.689   0.281  1.00  0.00     0.127 A 
ATOM     23  C   UNL     1      -5.144   0.712   0.338  1.00  0.00     0.001 A 
ATOM     24  C   UNL     1      -6.529  -1.304   0.330  1.00  0.00    -0.002 A 
ATOM     25  C   UNL     1      -6.309   1.512   0.398  1.00  0.00    -0.001 A 
ATOM     26  C   UNL     1      -7.688  -0.509   0.507  1.00  0.00    -0.001 A 
ATOM     27  C   UNL     1      -6.633  -2.809   0.237  1.00  0.00     0.049 C 
ATOM     28  C   UNL     1      -6.205   3.021   0.385  1.00  0.00     0.049 C 
ATOM     29  C   UNL     1      -7.575   0.897   0.495  1.00  0.00     0.137 A 
ATOM     30  C   UNL     1      -9.053  -1.147   0.638  1.00  0.00     0.049 C 
BRANCH  29  31
ATOM     31  O   UNL     1      -8.725   1.692   0.586  1.00  0.00    -0.426 OA
BRANCH  31  32
ATOM     32  C   UNL     1      -9.620   1.842  -0.482  1.00  0.00     0.308 C 
ATOM     33  C   UNL     1     -10.891   2.592  -0.276  1.00  0.00     0.139 C 
ATOM     34  O   UNL     1      -9.373   1.329  -1.607  1.00  0.00    -0.252 OA
ENDBRANCH  31  32
ENDBRANCH  29  31
ENDBRANCH  16  17
ENDBRANCH  15  16
ENDBRANCH  14  15
ENDBRANCH  12  14
ENDBRANCH   1  12
TORSDOF 14
