REMARK SMILES CCCS(=O)(=O)N[C@H]1C[C@@H](N(C)c2ncnc3[nH]ccc23)C1
REMARK SMILES IDX 7 1 4 3 5 4 6 5 3 6 2 7 1 8 8 9 22 10 9 11 10 12 11 13 12 14
REMARK SMILES IDX 13 15 21 16 14 17 20 18 17 19 15 20 19 21 18 22 16 23
REMARK H PARENT 7 2 18 24
REMARK Flexibility Score: inf
ROOT
ATOM      1  N   UNL     1      -2.018  -1.827   0.986  1.00  0.00    -0.212 NA
ATOM      2  H   UNL     1      -1.981  -2.810   1.341  1.00  0.00     0.141 HD
ENDROOT
BRANCH   1   3
ATOM      3  S   UNL     1      -3.502  -1.163   1.611  1.00  0.00     0.211 S 
ATOM      4  O   UNL     1      -3.492  -1.216   3.114  1.00  0.00    -0.212 OA
ATOM      5  O   UNL     1      -4.641  -2.005   1.112  1.00  0.00    -0.212 OA
BRANCH   3   6
ATOM      6  C   UNL     1      -3.762   0.517   1.044  1.00  0.00     0.153 C 
BRANCH   6   7
ATOM      7  C   UNL     1      -3.316   1.545   2.088  1.00  0.00     0.014 C 
ATOM      8  C   UNL     1      -3.421   2.965   1.541  1.00  0.00     0.005 C 
ENDBRANCH   6   7
ENDBRANCH   3   6
ENDBRANCH   1   3
BRANCH   1   9
ATOM      9  C   UNL     1      -0.857  -1.106   1.522  1.00  0.00     0.073 C 
ATOM     10  C   UNL     1       0.458  -1.863   1.297  1.00  0.00     0.045 C 
ATOM     11  C   UNL     1      -0.374   0.004   0.584  1.00  0.00     0.045 C 
ATOM     12  C   UNL     1       0.951  -0.731   0.399  1.00  0.00     0.086 C 
BRANCH  12  13
ATOM     13  N   UNL     1       1.224  -1.136  -0.996  1.00  0.00    -0.356 N 
ATOM     14  C   UNL     1       0.292  -1.946  -1.790  1.00  0.00     0.145 C 
BRANCH  13  15
ATOM     15  C   UNL     1       2.483  -0.791  -1.597  1.00  0.00     0.141 A 
ATOM     16  C   UNL     1       2.984   0.513  -1.589  1.00  0.00     0.061 A 
ATOM     17  N   UNL     1       3.227  -1.747  -2.232  1.00  0.00    -0.219 NA
ATOM     18  C   UNL     1       2.486   1.712  -1.121  1.00  0.00     0.033 A 
ATOM     19  C   UNL     1       4.180   0.783  -2.184  1.00  0.00     0.142 A 
ATOM     20  C   UNL     1       4.427  -1.450  -2.822  1.00  0.00     0.226 A 
ATOM     21  C   UNL     1       3.447   2.662  -1.459  1.00  0.00     0.085 A 
ATOM     22  N   UNL     1       4.484   2.087  -2.111  1.00  0.00    -0.346 N 
ATOM     23  N   UNL     1       4.912  -0.174  -2.803  1.00  0.00    -0.218 NA
ATOM     24  H   UNL     1       5.331   2.563  -2.494  1.00  0.00     0.167 HD
ENDBRANCH  13  15
ENDBRANCH  12  13
ENDBRANCH   1   9
TORSDOF 6
