REMARK SMILES C[C@]12CCC(=O)C=C1CC[C@@H]1[C@@H]2[C@@H](O)C[C@@]2(C)[C@H]1CC[C@]2(O)C(=O)COP(=O)(O)O
REMARK SMILES IDX 25 1 23 2 24 3 21 4 18 5 19 6 16 7 11 8 20 9 17 10 15 11
REMARK SMILES IDX 12 12 10 13 13 14 2 15 9 16 8 17 3 18 1 19 7 20 4 21 5 22
REMARK SMILES IDX 6 23 22 24 14 26 26 28 27 29 28 30 29 31 30 33
REMARK H PARENT 22 25 14 27 29 32 30 34
REMARK Flexibility Score: inf
ROOT
ATOM      1  C   UNL     1       4.486  -0.215   1.326  1.00  0.00     0.252 C 
ENDROOT
BRANCH   1   2
ATOM      2  C   UNL     1       3.882  -0.802   0.069  1.00  0.00     0.191 C 
ATOM      3  O   UNL     1       4.276  -1.903  -0.289  1.00  0.00    -0.294 OA
BRANCH   2   4
ATOM      4  C   UNL     1       2.720  -0.118  -0.670  1.00  0.00     0.131 C 
ATOM      5  C   UNL     1       0.351  -0.160  -1.170  1.00  0.00     0.002 C 
ATOM      6  C   UNL     1       1.014  -0.863  -2.345  1.00  0.00     0.008 C 
ATOM      7  C   UNL     1       1.313  -0.369   0.014  1.00  0.00     0.009 C 
ATOM      8  C   UNL     1      -1.118  -0.514  -0.843  1.00  0.00    -0.000 C 
ATOM      9  C   UNL     1       2.523  -0.677  -2.117  1.00  0.00     0.044 C 
ATOM     10  C   UNL     1       1.272  -1.832   0.576  1.00  0.00     0.015 C 
ATOM     11  C   UNL     1       0.885   0.619   1.135  1.00  0.00     0.042 C 
ATOM     12  C   UNL     1      -1.611   0.384   0.344  1.00  0.00     0.031 C 
ATOM     13  C   UNL     1      -2.015  -0.278  -2.072  1.00  0.00     0.009 C 
ATOM     14  C   UNL     1      -0.606   0.445   1.560  1.00  0.00     0.119 C 
ATOM     15  C   UNL     1      -3.127   0.110   0.725  1.00  0.00    -0.005 C 
ATOM     16  C   UNL     1      -3.464  -0.649  -1.773  1.00  0.00     0.032 C 
ATOM     17  C   UNL     1      -3.978   0.086  -0.557  1.00  0.00    -0.060 C 
ATOM     18  C   UNL     1      -3.632   1.263   1.652  1.00  0.00     0.020 C 
ATOM     19  C   UNL     1      -3.326  -1.256   1.440  1.00  0.00     0.016 C 
ATOM     20  C   UNL     1      -5.272   0.465  -0.542  1.00  0.00     0.047 C 
ATOM     21  C   UNL     1      -5.138   1.189   1.932  1.00  0.00     0.081 C 
ATOM     22  C   UNL     1      -5.914   1.009   0.665  1.00  0.00     0.155 C 
ATOM     23  O   UNL     1      -7.155   1.256   0.650  1.00  0.00    -0.295 OA
BRANCH   4  24
ATOM     24  O   UNL     1       3.069   1.246  -0.797  1.00  0.00    -0.381 OA
ATOM     25  H   UNL     1       2.268   1.824  -0.864  1.00  0.00     0.212 HD
ENDBRANCH   4  24
BRANCH  14  26
ATOM     26  O   UNL     1      -0.731  -0.679   2.390  1.00  0.00    -0.393 OA
ATOM     27  H   UNL     1      -0.551  -0.394   3.320  1.00  0.00     0.210 HD
ENDBRANCH  14  26
ENDBRANCH   2   4
ENDBRANCH   1   2
BRANCH   1  28
ATOM     28  O   UNL     1       4.849   1.139   1.163  1.00  0.00    -0.279 OA
BRANCH  28  29
ATOM     29  P   UNL     1       6.390   1.243   0.435  1.00  0.00     0.470 P 
ATOM     30  O   UNL     1       7.435   0.593   1.315  1.00  0.00    -0.228 OA
BRANCH  29  31
ATOM     31  O   UNL     1       6.787   2.874   0.240  1.00  0.00    -0.303 OA
ATOM     32  H   UNL     1       6.208   3.189  -0.500  1.00  0.00     0.223 HD
ENDBRANCH  29  31
BRANCH  29  33
ATOM     33  O   UNL     1       6.383   0.495  -1.087  1.00  0.00    -0.303 OA
ATOM     34  H   UNL     1       6.652  -0.442  -0.916  1.00  0.00     0.223 HD
ENDBRANCH  29  33
ENDBRANCH  28  29
ENDBRANCH   1  28
TORSDOF 8
