REMARK SMILES C=C1C[C@H]2[C@@H]3CCC4=CC(=O)CC[C@@H]4[C@H]3CC[C@]2(C)[C@@]1(OC(C)=O)C(C)=O
REMARK SMILES IDX 4 1 3 2 2 3 1 4 20 5 18 6 19 7 17 8 16 9 15 10 14 11 13 12
REMARK SMILES IDX 12 13 10 14 11 15 9 16 8 17 7 18 6 19 5 20 21 21 22 22 23 23
REMARK SMILES IDX 24 24 25 25 26 26 27 27
REMARK H PARENT
REMARK Flexibility Score: inf
ROOT
ATOM      1  C   UNL     1      -0.666  -0.569   0.515  1.00  0.00     0.007 C 
ATOM      2  C   UNL     1      -1.561  -1.664   1.094  1.00  0.00     0.039 C 
ATOM      3  C   UNL     1      -2.931  -1.193   0.687  1.00  0.00    -0.026 C 
ATOM      4  C   UNL     1      -4.053  -1.634   1.272  1.00  0.00     0.012 C 
ATOM      5  C   UNL     1      -2.877  -0.075  -0.344  1.00  0.00     0.196 C 
ATOM      6  C   UNL     1      -1.365  -0.118  -0.784  1.00  0.00     0.022 C 
ATOM      7  C   UNL     1      -1.161  -1.150  -1.948  1.00  0.00     0.017 C 
ATOM      8  C   UNL     1      -0.744   1.239  -1.195  1.00  0.00     0.012 C 
ATOM      9  C   UNL     1       0.794   1.138  -1.361  1.00  0.00     0.005 C 
ATOM     10  C   UNL     1       1.523   0.488  -0.141  1.00  0.00    -0.000 C 
ATOM     11  C   UNL     1       3.038   0.245  -0.420  1.00  0.00     0.019 C 
ATOM     12  C   UNL     1       3.765   1.574  -0.753  1.00  0.00     0.016 C 
ATOM     13  C   UNL     1       5.275   1.375  -0.888  1.00  0.00     0.081 C 
ATOM     14  C   UNL     1       5.818   0.699   0.330  1.00  0.00     0.155 C 
ATOM     15  O   UNL     1       7.009   0.904   0.685  1.00  0.00    -0.295 OA
ATOM     16  C   UNL     1       4.991  -0.264   1.070  1.00  0.00     0.046 C 
ATOM     17  C   UNL     1       3.697  -0.465   0.766  1.00  0.00    -0.063 C 
ATOM     18  C   UNL     1       2.972  -1.609   1.437  1.00  0.00     0.032 C 
ATOM     19  C   UNL     1       1.490  -1.300   1.645  1.00  0.00     0.008 C 
ATOM     20  C   UNL     1       0.841  -0.836   0.330  1.00  0.00    -0.003 C 
ENDROOT
BRANCH   5  21
ATOM     21  O   UNL     1      -3.220   1.205   0.234  1.00  0.00    -0.446 OA
BRANCH  21  22
ATOM     22  C   UNL     1      -3.032   1.668   1.549  1.00  0.00     0.303 C 
ATOM     23  C   UNL     1      -3.251   3.113   1.838  1.00  0.00     0.139 C 
ATOM     24  O   UNL     1      -2.759   0.887   2.499  1.00  0.00    -0.253 OA
ENDBRANCH  21  22
ENDBRANCH   5  21
BRANCH   5  25
ATOM     25  C   UNL     1      -3.845  -0.285  -1.514  1.00  0.00     0.178 C 
ATOM     26  C   UNL     1      -4.381  -1.631  -1.930  1.00  0.00     0.093 C 
ATOM     27  O   UNL     1      -4.172   0.685  -2.181  1.00  0.00    -0.295 OA
ENDBRANCH   5  25
TORSDOF 3
