REMARK SMILES CCOC/C=C/c1ccc(-c2nc(-c3ccc(NC(C)C)cc3)c(-c3ccc(NC(C)C)cc3)[nH]2)cc1
REMARK SMILES IDX 7 1 8 2 9 3 10 4 36 5 37 6 6 7 5 8 4 9 3 10 2 11 1 12 11 13
REMARK SMILES IDX 12 14 35 15 13 16 24 17 14 19 15 20 23 21 16 22 22 23 17 24
REMARK SMILES IDX 18 25 19 27 20 28 21 29 25 30 26 31 34 32 27 33 33 34 28 35
REMARK SMILES IDX 29 36 30 38 31 39 32 40
REMARK H PARENT 35 18 18 26 29 37
REMARK Flexibility Score: inf
ROOT
ATOM      1  C   UNL     1       5.668  -1.079  -1.569  1.00  0.00    -0.026 A 
ATOM      2  C   UNL     1       5.228   0.129  -0.998  1.00  0.00     0.009 A 
ATOM      3  C   UNL     1       3.884   0.303  -0.659  1.00  0.00     0.012 A 
ATOM      4  C   UNL     1       2.947  -0.721  -0.877  1.00  0.00     0.017 A 
ATOM      5  C   UNL     1       3.389  -1.930  -1.444  1.00  0.00     0.012 A 
ATOM      6  C   UNL     1       4.735  -2.106  -1.777  1.00  0.00     0.009 A 
ENDROOT
BRANCH   1   7
ATOM      7  C   UNL     1       7.090  -1.326  -1.903  1.00  0.00     0.006 C 
ATOM      8  C   UNL     1       7.975  -0.349  -2.139  1.00  0.00     0.002 C 
BRANCH   8   9
ATOM      9  C   UNL     1       9.423  -0.645  -2.409  1.00  0.00     0.187 C 
BRANCH   9  10
ATOM     10  O   UNL     1      10.236  -0.009  -1.442  1.00  0.00    -0.378 OA
BRANCH  10  11
ATOM     11  C   UNL     1      10.371  -0.831  -0.300  1.00  0.00     0.157 C 
ATOM     12  C   UNL     1      11.044  -0.036   0.809  1.00  0.00     0.035 C 
ENDBRANCH  10  11
ENDBRANCH   9  10
ENDBRANCH   8   9
ENDBRANCH   1   7
BRANCH   4  13
ATOM     13  C   UNL     1       1.529  -0.515  -0.491  1.00  0.00     0.138 A 
ATOM     14  N   UNL     1       1.064   0.663  -0.018  1.00  0.00    -0.228 NA
ATOM     15  N   UNL     1       0.572  -1.468  -0.539  1.00  0.00    -0.337 N 
ATOM     16  C   UNL     1      -0.241   0.440   0.240  1.00  0.00     0.097 A 
ATOM     17  C   UNL     1      -0.542  -0.880  -0.071  1.00  0.00     0.074 A 
ATOM     18  H   UNL     1       0.669  -2.467  -0.823  1.00  0.00     0.168 HD
BRANCH  16  19
ATOM     19  C   UNL     1      -1.153   1.505   0.716  1.00  0.00     0.003 A 
ATOM     20  C   UNL     1      -0.651   2.536   1.524  1.00  0.00     0.012 A 
ATOM     21  C   UNL     1      -2.500   1.546   0.321  1.00  0.00     0.012 A 
ATOM     22  C   UNL     1      -1.485   3.569   1.957  1.00  0.00     0.026 A 
ATOM     23  C   UNL     1      -3.340   2.570   0.767  1.00  0.00     0.026 A 
ATOM     24  C   UNL     1      -2.840   3.597   1.590  1.00  0.00     0.034 A 
BRANCH  24  25
ATOM     25  N   UNL     1      -3.669   4.677   2.065  1.00  0.00    -0.383 N 
ATOM     26  H   UNL     1      -3.222   5.391   2.687  1.00  0.00     0.160 HD
BRANCH  25  27
ATOM     27  C   UNL     1      -5.092   4.848   1.740  1.00  0.00     0.073 C 
ATOM     28  C   UNL     1      -5.759   5.776   2.766  1.00  0.00     0.030 C 
ATOM     29  C   UNL     1      -5.246   5.420   0.327  1.00  0.00     0.030 C 
ENDBRANCH  25  27
ENDBRANCH  24  25
ENDBRANCH  16  19
BRANCH  17  30
ATOM     30  C   UNL     1      -1.810  -1.604   0.145  1.00  0.00     0.000 A 
ATOM     31  C   UNL     1      -2.505  -1.489   1.357  1.00  0.00     0.012 A 
ATOM     32  C   UNL     1      -2.306  -2.456  -0.852  1.00  0.00     0.012 A 
ATOM     33  C   UNL     1      -3.705  -2.178   1.547  1.00  0.00     0.026 A 
ATOM     34  C   UNL     1      -3.509  -3.142  -0.662  1.00  0.00     0.026 A 
ATOM     35  C   UNL     1      -4.233  -2.992   0.532  1.00  0.00     0.034 A 
BRANCH  35  36
ATOM     36  N   UNL     1      -5.472  -3.688   0.762  1.00  0.00    -0.383 N 
ATOM     37  H   UNL     1      -5.696  -3.933   1.754  1.00  0.00     0.160 HD
BRANCH  36  38
ATOM     38  C   UNL     1      -6.598  -3.754  -0.183  1.00  0.00     0.073 C 
ATOM     39  C   UNL     1      -6.446  -4.919  -1.169  1.00  0.00     0.030 C 
ATOM     40  C   UNL     1      -6.822  -2.418  -0.900  1.00  0.00     0.030 C 
ENDBRANCH  36  38
ENDBRANCH  35  36
ENDBRANCH  17  30
ENDBRANCH   4  13
TORSDOF 11
