REMARK SMILES CC(=O)OC1N=C(c2ccccc2)c2cc(Cl)ccc2NC1=O
REMARK SMILES IDX 5 1 4 3 2 4 1 5 3 6 6 7 7 8 8 9 9 10 13 11 10 12 12 13 11 14
REMARK SMILES IDX 14 15 15 16 20 17 16 18 19 19 17 20 18 21 21 22 22 23 23 25
REMARK H PARENT 21 24
REMARK Flexibility Score: 90.00
ROOT
ATOM      1  C   UNL     1       1.488   0.194   2.068  1.00  0.00     0.385 CG0
ATOM      2  G   UNL     1       1.087   1.579   2.467  1.00  0.00     0.000 G0
ENDROOT
BRANCH   1   3
ATOM      3  O   UNL     1       2.442   0.249   1.007  1.00  0.00    -0.430 OA
BRANCH   3   4
ATOM      4  C   UNL     1       3.050  -0.887   0.464  1.00  0.00     0.305 C 
ATOM      5  C   UNL     1       3.988  -0.736  -0.684  1.00  0.00     0.139 C 
ATOM      6  O   UNL     1       2.842  -2.028   0.957  1.00  0.00    -0.253 OA
ENDBRANCH   3   4
ENDBRANCH   1   3
BRANCH   1   7
ATOM      7  N   UNL     1       0.299  -0.547   1.659  1.00  0.00    -0.232 NA
ATOM      8  C   UNL     1      -0.458  -0.276   0.633  1.00  0.00     0.079 C 
BRANCH   8   9
ATOM      9  C   UNL     1      -1.636  -1.147   0.383  1.00  0.00     0.001 A 
ATOM     10  C   UNL     1      -1.613  -2.502   0.765  1.00  0.00     0.010 A 
ATOM     11  C   UNL     1      -2.801  -0.629  -0.215  1.00  0.00     0.010 A 
ATOM     12  C   UNL     1      -2.723  -3.321   0.537  1.00  0.00     0.001 A 
ATOM     13  C   UNL     1      -3.908  -1.453  -0.440  1.00  0.00     0.001 A 
ATOM     14  C   UNL     1      -3.868  -2.798  -0.066  1.00  0.00     0.000 A 
ENDBRANCH   8   9
BRANCH   8  15
ATOM     15  C   UNL     1      -0.142   0.847  -0.300  1.00  0.00     0.026 A 
ATOM     16  C   UNL     1      -0.245   0.618  -1.685  1.00  0.00     0.033 A 
ATOM     17  C   UNL     1       0.231   2.139   0.157  1.00  0.00     0.050 A 
ATOM     18  C   UNL     1      -0.024   1.650  -2.600  1.00  0.00     0.041 A 
ATOM     19  C   UNL     1       0.425   3.170  -0.777  1.00  0.00     0.028 A 
ATOM     20  Cl  UNL     1      -0.165   1.342  -4.321  1.00  0.00    -0.084 Cl
ATOM     21  C   UNL     1       0.302   2.926  -2.145  1.00  0.00     0.023 A 
BRANCH  17  22
ATOM     22  N   UNL     1       0.404   2.443   1.551  1.00  0.00    -0.320 N 
ATOM     23  C   UNL     1       1.087   1.579   2.467  1.00  0.00     0.289 CG0
ATOM     24  H   UNL     1       0.212   3.420   1.869  1.00  0.00     0.170 HD
ATOM     25  O   UNL     1       1.351   1.990   3.628  1.00  0.00    -0.268 OA
ATOM     26  G   UNL     1       1.488   0.194   2.068  1.00  0.00     0.000 G0
ENDBRANCH  17  22
ENDBRANCH   8  15
ENDBRANCH   1   7
TORSDOF 3
