REMARK SMILES Cc1ccccc1-c1cc(N2CC[N+](C)(COP(=O)([O-])O)CC2)ncc1N(C)C(=O)C(C)(C)c1cc(C(F)(F)F)cc(C(F)(F)F)c1
REMARK SMILES IDX 26 1 25 2 24 3 10 4 9 5 8 6 27 7 28 8 29 9 30 10 31 11 32 12
REMARK SMILES IDX 33 13 34 14 47 15 35 16 42 17 36 18 41 19 43 20 44 21 45 22
REMARK SMILES IDX 46 23 37 24 38 25 39 26 40 27 7 28 6 29 2 30 5 31 3 32 1 33
REMARK SMILES IDX 4 34 11 35 12 36 23 37 13 38 22 39 14 40 15 41 16 42 17 43
REMARK SMILES IDX 18 44 20 45 19 46 21 47
REMARK H PARENT 21 48
REMARK Flexibility Score: inf
ROOT
ATOM      1  C   UNL     1      -0.753  -0.641  -0.789  1.00  0.00     0.070 A 
ATOM      2  C   UNL     1      -0.165   0.402  -1.531  1.00  0.00     0.140 A 
ATOM      3  N   UNL     1       1.164   0.660  -1.444  1.00  0.00    -0.237 NA
ATOM      4  C   UNL     1       1.987  -0.068  -0.643  1.00  0.00     0.129 A 
ATOM      5  C   UNL     1       1.466  -1.142   0.086  1.00  0.00     0.058 A 
ATOM      6  C   UNL     1       0.102  -1.448   0.012  1.00  0.00     0.011 A 
ENDROOT
BRANCH   1   7
ATOM      7  N   UNL     1      -2.189  -0.843  -0.862  1.00  0.00    -0.313 N 
ATOM      8  C   UNL     1      -2.779  -2.168  -1.058  1.00  0.00     0.153 C 
BRANCH   7   9
ATOM      9  C   UNL     1      -3.068   0.290  -0.985  1.00  0.00     0.236 C 
ATOM     10  O   UNL     1      -3.451   0.640  -2.138  1.00  0.00    -0.274 OA
BRANCH   9  11
ATOM     11  C   UNL     1      -3.497   1.107   0.233  1.00  0.00     0.069 C 
ATOM     12  C   UNL     1      -3.369   0.280   1.528  1.00  0.00     0.027 C 
ATOM     13  C   UNL     1      -2.536   2.316   0.333  1.00  0.00     0.027 C 
BRANCH  11  14
ATOM     14  C   UNL     1      -4.977   1.514   0.085  1.00  0.00    -0.032 A 
ATOM     15  C   UNL     1      -5.933   0.530  -0.253  1.00  0.00     0.018 A 
ATOM     16  C   UNL     1      -5.436   2.822   0.359  1.00  0.00     0.018 A 
ATOM     17  C   UNL     1      -7.296   0.846  -0.369  1.00  0.00     0.056 A 
ATOM     18  C   UNL     1      -6.798   3.151   0.261  1.00  0.00     0.056 A 
ATOM     19  C   UNL     1      -7.723   2.151  -0.077  1.00  0.00     0.026 A 
BRANCH  17  20
ATOM     20  C   UNL     1      -8.306  -0.226  -0.699  1.00  0.00     0.416 C 
ATOM     21  F   UNL     1      -8.775  -0.784   0.480  1.00  0.00    -0.166 F 
ATOM     22  F   UNL     1      -7.739  -1.221  -1.480  1.00  0.00    -0.166 F 
ATOM     23  F   UNL     1      -9.373   0.316  -1.400  1.00  0.00    -0.166 F 
ENDBRANCH  17  20
BRANCH  18  24
ATOM     24  C   UNL     1      -7.260   4.545   0.621  1.00  0.00     0.416 C 
ATOM     25  F   UNL     1      -8.509   4.819   0.081  1.00  0.00    -0.166 F 
ATOM     26  F   UNL     1      -6.366   5.489   0.143  1.00  0.00    -0.166 F 
ATOM     27  F   UNL     1      -7.335   4.655   1.998  1.00  0.00    -0.166 F 
ENDBRANCH  18  24
ENDBRANCH  11  14
ENDBRANCH   9  11
ENDBRANCH   7   9
ENDBRANCH   1   7
BRANCH   6  28
ATOM     28  C   UNL     1      -0.375  -2.613   0.789  1.00  0.00    -0.013 A 
ATOM     29  C   UNL     1      -0.853  -2.409   2.092  1.00  0.00     0.009 A 
ATOM     30  C   UNL     1      -0.266  -3.936   0.286  1.00  0.00    -0.043 A 
ATOM     31  C   UNL     1      -1.297  -3.486   2.862  1.00  0.00     0.001 A 
ATOM     32  C   UNL     1      -0.711  -5.010   1.076  1.00  0.00     0.004 A 
ATOM     33  C   UNL     1       0.408  -4.223  -1.031  1.00  0.00     0.045 C 
ATOM     34  C   UNL     1      -1.234  -4.784   2.351  1.00  0.00     0.000 A 
ENDBRANCH   6  28
BRANCH   4  35
ATOM     35  N   UNL     1       3.377   0.277  -0.544  1.00  0.00    -0.345 N 
ATOM     36  C   UNL     1       3.979   0.506   0.772  1.00  0.00     0.179 C 
ATOM     37  C   UNL     1       4.153   0.583  -1.747  1.00  0.00     0.179 C 
ATOM     38  C   UNL     1       5.440   0.963   0.629  1.00  0.00     0.287 C 
ATOM     39  C   UNL     1       5.534  -0.085  -1.650  1.00  0.00     0.287 C 
ATOM     40  N   UNL     1       6.226   0.113  -0.323  1.00  0.00    -0.300 N 
ATOM     41  C   UNL     1       6.468  -1.219   0.303  1.00  0.00     0.336 C 
BRANCH  40  42
ATOM     42  C   UNL     1       7.555   0.756  -0.528  1.00  0.00     0.445 C 
BRANCH  42  43
ATOM     43  O   UNL     1       7.413   1.990  -1.208  1.00  0.00    -0.266 OA
BRANCH  43  44
ATOM     44  P   UNL     1       8.780   2.972  -0.886  1.00  0.00     0.269 P 
ATOM     45  O   UNL     1       8.878   4.182  -2.060  1.00  0.00    -0.756 OA
ATOM     46  O   UNL     1      10.052   2.149  -0.930  1.00  0.00    -0.276 OA
BRANCH  44  47
ATOM     47  O   UNL     1       8.610   3.675   0.648  1.00  0.00    -0.334 OA
ATOM     48  H   UNL     1       9.248   4.431   0.650  1.00  0.00     0.220 HD
ENDBRANCH  44  47
ENDBRANCH  43  44
ENDBRANCH  42  43
ENDBRANCH  40  42
ENDBRANCH   4  35
TORSDOF 12
