REMARK SMILES CC(C)C(C#N)(CCCN(C)CCc1ccccc1)c1ccccc1
REMARK SMILES IDX 9 1 8 2 7 3 4 4 2 5 1 6 3 7 5 8 6 9 20 10 21 11 25 12 22 13
REMARK SMILES IDX 24 14 23 15 10 16 11 17 12 18 13 19 14 20 15 21 19 22 16 23
REMARK SMILES IDX 18 24 17 25
REMARK H PARENT
REMARK Flexibility Score: inf
ROOT
ATOM      1  C   UNL     1       1.330   1.041  -1.682  1.00  0.00     0.084 C 
ENDROOT
BRANCH   1   2
ATOM      2  C   UNL     1       0.654   1.053  -0.294  1.00  0.00     0.017 C 
BRANCH   2   3
ATOM      3  C   UNL     1      -0.869   1.291  -0.421  1.00  0.00     0.029 C 
BRANCH   3   4
ATOM      4  C   UNL     1      -1.653   1.594   0.912  1.00  0.00     0.085 C 
BRANCH   4   5
ATOM      5  C   UNL     1      -1.771   3.146   1.177  1.00  0.00     0.008 C 
ATOM      6  C   UNL     1      -0.417   3.879   1.230  1.00  0.00     0.009 C 
ATOM      7  C   UNL     1      -2.570   3.471   2.457  1.00  0.00     0.009 C 
ENDBRANCH   4   5
BRANCH   4   8
ATOM      8  C   UNL     1      -0.948   0.953   2.053  1.00  0.00     0.074 C 
ATOM      9  N   UNL     1      -0.396   0.456   2.941  1.00  0.00    -0.197 NA
ENDBRANCH   4   8
BRANCH   4  10
ATOM     10  C   UNL     1      -3.082   1.020   0.761  1.00  0.00    -0.028 A 
ATOM     11  C   UNL     1      -3.859   1.374  -0.366  1.00  0.00     0.005 A 
ATOM     12  C   UNL     1      -3.685   0.194   1.743  1.00  0.00     0.005 A 
ATOM     13  C   UNL     1      -5.164   0.900  -0.521  1.00  0.00     0.000 A 
ATOM     14  C   UNL     1      -4.992  -0.276   1.580  1.00  0.00     0.000 A 
ATOM     15  C   UNL     1      -5.728   0.073   0.449  1.00  0.00     0.000 A 
ENDBRANCH   4  10
ENDBRANCH   3   4
ENDBRANCH   2   3
ENDBRANCH   1   2
BRANCH   1  16
ATOM     16  N   UNL     1       2.737   0.574  -1.680  1.00  0.00    -0.306 NA
ATOM     17  C   UNL     1       3.561   1.024  -0.547  1.00  0.00     0.105 C 
BRANCH  16  18
ATOM     18  C   UNL     1       2.940  -0.844  -2.051  1.00  0.00     0.089 C 
BRANCH  18  19
ATOM     19  C   UNL     1       2.268  -1.842  -1.093  1.00  0.00     0.051 C 
BRANCH  19  20
ATOM     20  C   UNL     1       2.638  -3.254  -1.464  1.00  0.00    -0.047 A 
ATOM     21  C   UNL     1       1.883  -3.956  -2.420  1.00  0.00     0.004 A 
ATOM     22  C   UNL     1       3.773  -3.861  -0.902  1.00  0.00     0.004 A 
ATOM     23  C   UNL     1       2.246  -5.255  -2.787  1.00  0.00     0.000 A 
ATOM     24  C   UNL     1       4.133  -5.161  -1.272  1.00  0.00     0.000 A 
ATOM     25  C   UNL     1       3.369  -5.858  -2.212  1.00  0.00     0.000 A 
ENDBRANCH  19  20
ENDBRANCH  18  19
ENDBRANCH  16  18
ENDBRANCH   1  16
TORSDOF 10
