REMARK SMILES O=C(C(c1ccccc1)c1ccccc1)N1CCN(CC(O)COc2cccc3ncccc23)CC1
REMARK SMILES IDX 20 1 21 2 22 3 23 5 24 6 25 7 26 8 34 9 27 10 29 11 33 12
REMARK SMILES IDX 28 13 30 14 32 15 31 16 19 17 18 18 35 19 17 20 36 21 16 22
REMARK SMILES IDX 2 23 1 24 3 25 4 26 5 27 9 28 6 29 8 30 7 31 10 32 11 33
REMARK SMILES IDX 15 34 12 35 14 36 13 37
REMARK H PARENT 22 4
REMARK Flexibility Score: inf
ROOT
ATOM      1  C   UNL     1       1.437  -1.610   0.553  1.00  0.00     0.120 C 
ENDROOT
BRANCH   1   2
ATOM      2  C   UNL     1       2.640  -2.199  -0.231  1.00  0.00     0.166 C 
BRANCH   2   3
ATOM      3  O   UNL     1       2.249  -3.398  -0.851  1.00  0.00    -0.388 OA
ATOM      4  H   UNL     1       2.878  -3.553  -1.602  1.00  0.00     0.211 HD
ENDBRANCH   2   3
BRANCH   2   5
ATOM      5  C   UNL     1       3.812  -2.490   0.714  1.00  0.00     0.262 C 
BRANCH   5   6
ATOM      6  O   UNL     1       4.324  -1.267   1.238  1.00  0.00    -0.490 OA
BRANCH   6   7
ATOM      7  C   UNL     1       5.358  -1.168   2.184  1.00  0.00     0.128 A 
ATOM      8  C   UNL     1       6.009  -2.309   2.695  1.00  0.00     0.047 A 
ATOM      9  C   UNL     1       5.754   0.108   2.635  1.00  0.00     0.042 A 
ATOM     10  C   UNL     1       7.029  -2.180   3.641  1.00  0.00     0.006 A 
ATOM     11  C   UNL     1       6.789   0.228   3.593  1.00  0.00     0.074 A 
ATOM     12  C   UNL     1       5.143   1.281   2.160  1.00  0.00     0.016 A 
ATOM     13  C   UNL     1       7.419  -0.917   4.089  1.00  0.00     0.029 A 
ATOM     14  N   UNL     1       7.173   1.457   4.032  1.00  0.00    -0.256 NA
ATOM     15  C   UNL     1       5.562   2.527   2.630  1.00  0.00     0.021 A 
ATOM     16  C   UNL     1       6.588   2.596   3.575  1.00  0.00     0.112 A 
ENDBRANCH   6   7
ENDBRANCH   5   6
ENDBRANCH   2   5
ENDBRANCH   1   2
BRANCH   1  17
ATOM     17  N   UNL     1       0.528  -0.768  -0.255  1.00  0.00    -0.297 NA
ATOM     18  C   UNL     1      -0.167  -1.487  -1.343  1.00  0.00     0.106 C 
ATOM     19  C   UNL     1       1.125   0.496  -0.718  1.00  0.00     0.106 C 
ATOM     20  C   UNL     1      -1.008  -0.527  -2.212  1.00  0.00     0.135 C 
ATOM     21  C   UNL     1      -0.007   1.481  -1.034  1.00  0.00     0.135 C 
ATOM     22  N   UNL     1      -1.188   0.767  -1.540  1.00  0.00    -0.339 N 
ATOM     23  C   UNL     1      -2.485   1.375  -1.409  1.00  0.00     0.234 C 
ATOM     24  O   UNL     1      -2.598   2.625  -1.549  1.00  0.00    -0.274 OA
BRANCH  23  25
ATOM     25  C   UNL     1      -3.698   0.548  -1.037  1.00  0.00     0.139 C 
BRANCH  25  26
ATOM     26  C   UNL     1      -4.551   0.144  -2.230  1.00  0.00    -0.031 A 
ATOM     27  C   UNL     1      -5.293  -1.051  -2.158  1.00  0.00     0.005 A 
ATOM     28  C   UNL     1      -4.676   0.951  -3.381  1.00  0.00     0.005 A 
ATOM     29  C   UNL     1      -6.117  -1.441  -3.217  1.00  0.00     0.000 A 
ATOM     30  C   UNL     1      -5.504   0.556  -4.437  1.00  0.00     0.000 A 
ATOM     31  C   UNL     1      -6.221  -0.639  -4.356  1.00  0.00     0.000 A 
ENDBRANCH  25  26
BRANCH  25  32
ATOM     32  C   UNL     1      -4.522   1.243   0.032  1.00  0.00    -0.031 A 
ATOM     33  C   UNL     1      -4.380   0.862   1.380  1.00  0.00     0.005 A 
ATOM     34  C   UNL     1      -5.382   2.314  -0.284  1.00  0.00     0.005 A 
ATOM     35  C   UNL     1      -5.095   1.524   2.382  1.00  0.00     0.000 A 
ATOM     36  C   UNL     1      -6.098   2.970   0.723  1.00  0.00     0.000 A 
ATOM     37  C   UNL     1      -5.955   2.576   2.055  1.00  0.00     0.000 A 
ENDBRANCH  25  32
ENDBRANCH  23  25
ENDBRANCH   1  17
TORSDOF 9
