REMARK SMILES COc1ccc2cc1Oc1ccc(cc1)C[C@H]1c3cc(c(OC)cc3CCN1C)Oc1c(OC)c(OC)cc3c1[C@H](C2)N(C)CC3
REMARK SMILES IDX 16 1 13 2 10 3 11 4 15 5 12 6 14 7 9 8 8 9 3 10 4 11 5 12
REMARK SMILES IDX 7 13 6 14 2 15 1 16 42 17 17 19 18 20 28 21 19 22 25 23
REMARK SMILES IDX 27 24 29 25 20 26 26 27 24 28 21 29 30 30 31 31 40 32 32 33
REMARK SMILES IDX 41 34 39 35 35 36 43 37 46 39 38 40 44 41 45 42 33 43 34 44
REMARK SMILES IDX 36 45 37 46 22 47 23 48
REMARK H PARENT
REMARK Flexibility Score: 70.00
ROOT
ATOM      1  C   UNL     1       4.774   1.039  -0.225  1.00  0.00     0.059 C 
ENDROOT
BRANCH   1   2
ATOM      2  C   UNL     1       3.738   2.088   0.077  1.00  0.00    -0.046 A 
ATOM      3  C   UNL     1       1.772   4.011   0.649  1.00  0.00     0.127 A 
ATOM      4  C   UNL     1       2.791   3.756   1.571  1.00  0.00     0.047 A 
ATOM      5  C   UNL     1       1.774   3.347  -0.587  1.00  0.00     0.047 A 
ATOM      6  C   UNL     1       3.763   2.788   1.294  1.00  0.00     0.007 A 
ATOM      7  C   UNL     1       2.749   2.392  -0.872  1.00  0.00     0.007 A 
BRANCH   3   8
ATOM      8  O   UNL     1       0.743   4.903   0.975  1.00  0.00    -0.453 OA
BRANCH   8   9
ATOM      9  C   UNL     1      -0.614   4.591   0.798  1.00  0.00     0.169 A 
ATOM     10  C   UNL     1      -1.543   5.625   0.604  1.00  0.00     0.161 A 
ATOM     11  C   UNL     1      -2.902   5.302   0.406  1.00  0.00     0.051 A 
ATOM     12  C   UNL     1      -3.326   3.969   0.431  1.00  0.00     0.008 A 
ATOM     13  C   UNL     1      -1.054   3.257   0.843  1.00  0.00     0.055 A 
ATOM     14  C   UNL     1      -2.405   2.940   0.671  1.00  0.00    -0.042 A 
BRANCH  10  15
ATOM     15  O   UNL     1      -1.079   6.949   0.603  1.00  0.00    -0.493 OA
ATOM     16  C   UNL     1      -1.915   8.094   0.480  1.00  0.00     0.278 C 
ENDBRANCH  10  15
BRANCH  14  17
ATOM     17  C   UNL     1      -2.844   1.505   0.768  1.00  0.00     0.059 CG0
ATOM     18  G   UNL     1      -2.660   0.751  -0.572  1.00  0.00     0.000 G0
ENDBRANCH  14  17
ENDBRANCH   8   9
ENDBRANCH   3   8
ENDBRANCH   1   2
BRANCH   1  19
ATOM     19  C   UNL     1       4.631  -0.291   0.579  1.00  0.00     0.091 C 
ATOM     20  C   UNL     1       3.382  -1.105   0.188  1.00  0.00    -0.023 A 
ATOM     21  N   UNL     1       5.896  -1.091   0.500  1.00  0.00    -0.299 NA
ATOM     22  C   UNL     1       2.089  -0.571   0.352  1.00  0.00     0.056 A 
ATOM     23  C   UNL     1       3.485  -2.465  -0.181  1.00  0.00    -0.038 A 
ATOM     24  C   UNL     1       5.699  -2.467   0.989  1.00  0.00     0.089 C 
ATOM     25  C   UNL     1       6.555  -1.098  -0.829  1.00  0.00     0.106 C 
ATOM     26  C   UNL     1       0.949  -1.275  -0.065  1.00  0.00     0.169 A 
ATOM     27  C   UNL     1       4.746  -3.244   0.070  1.00  0.00     0.051 C 
ATOM     28  C   UNL     1       2.373  -3.128  -0.715  1.00  0.00     0.054 A 
ATOM     29  C   UNL     1       1.111  -2.509  -0.732  1.00  0.00     0.161 A 
BRANCH  26  30
ATOM     30  O   UNL     1      -0.313  -0.700   0.194  1.00  0.00    -0.449 OA
BRANCH  30  31
ATOM     31  C   UNL     1      -1.548  -1.378   0.239  1.00  0.00     0.178 A 
ATOM     32  C   UNL     1      -2.684  -0.746  -0.309  1.00  0.00     0.020 A 
ATOM     33  C   UNL     1      -1.669  -2.651   0.838  1.00  0.00     0.204 A 
ATOM     34  C   UNL     1      -2.660   0.751  -0.572  1.00  0.00     0.095 CG0
ATOM     35  C   UNL     1      -3.877  -1.471  -0.463  1.00  0.00    -0.034 A 
ATOM     36  C   UNL     1      -2.876  -3.378   0.688  1.00  0.00     0.164 A 
ATOM     37  N   UNL     1      -3.677   1.182  -1.564  1.00  0.00    -0.299 NA
ATOM     38  G   UNL     1      -2.844   1.505   0.768  1.00  0.00     0.000 G0
ATOM     39  C   UNL     1      -5.027  -0.911  -1.254  1.00  0.00     0.051 C 
ATOM     40  C   UNL     1      -3.952  -2.787  -0.001  1.00  0.00     0.054 A 
ATOM     41  C   UNL     1      -3.228   0.920  -2.943  1.00  0.00     0.106 C 
ATOM     42  C   UNL     1      -5.021   0.620  -1.310  1.00  0.00     0.089 C 
BRANCH  33  43
ATOM     43  O   UNL     1      -0.562  -3.129   1.568  1.00  0.00    -0.490 OA
ATOM     44  C   UNL     1      -0.435  -4.400   2.190  1.00  0.00     0.278 C 
ENDBRANCH  33  43
BRANCH  36  45
ATOM     45  O   UNL     1      -2.983  -4.678   1.208  1.00  0.00    -0.493 OA
ATOM     46  C   UNL     1      -4.124  -5.518   1.077  1.00  0.00     0.278 C 
ENDBRANCH  36  45
ENDBRANCH  30  31
ENDBRANCH  26  30
BRANCH  29  47
ATOM     47  O   UNL     1       0.014  -3.096  -1.383  1.00  0.00    -0.493 OA
ATOM     48  C   UNL     1       0.022  -4.384  -1.993  1.00  0.00     0.278 C 
ENDBRANCH  29  47
ENDBRANCH   1  19
TORSDOF 4
