REMARK SMILES Cc1c(C)c2c(c(C)c1OC(=O)CCC(=O)O)CC[C@@](C)(CCC[C@H](C)CCC[C@H](C)CCCC(C)C)O2
REMARK SMILES IDX 24 1 25 2 26 3 27 4 28 5 29 6 30 7 31 8 32 9 33 10 34 11
REMARK SMILES IDX 35 12 36 13 37 14 23 15 22 16 20 17 21 18 19 19 38 20 18 21
REMARK SMILES IDX 5 22 6 23 3 24 7 25 2 26 4 27 8 28 9 29 1 30 10 31 11 32
REMARK SMILES IDX 12 33 13 34 14 35 15 36 16 37 17 38
REMARK H PARENT 17 39
REMARK Flexibility Score: inf
ROOT
ATOM      1  C   UNL     1      -1.384  -1.042  -2.805  1.00  0.00     0.003 C 
ENDROOT
BRANCH   1   2
ATOM      2  C   UNL     1      -2.914  -1.254  -2.680  1.00  0.00    -0.014 C 
ATOM      3  C   UNL     1      -3.349  -2.598  -3.295  1.00  0.00     0.007 C 
BRANCH   2   4
ATOM      4  C   UNL     1      -3.700  -0.110  -3.372  1.00  0.00     0.003 C 
BRANCH   4   5
ATOM      5  C   UNL     1      -3.517   1.296  -2.762  1.00  0.00     0.001 C 
BRANCH   5   6
ATOM      6  C   UNL     1      -3.849   1.420  -1.261  1.00  0.00     0.003 C 
BRANCH   6   7
ATOM      7  C   UNL     1      -5.254   0.916  -0.845  1.00  0.00    -0.014 C 
ATOM      8  C   UNL     1      -6.371   1.638  -1.619  1.00  0.00     0.007 C 
BRANCH   7   9
ATOM      9  C   UNL     1      -5.445   1.116   0.677  1.00  0.00     0.003 C 
BRANCH   9  10
ATOM     10  C   UNL     1      -6.606   0.278   1.266  1.00  0.00     0.001 C 
BRANCH  10  11
ATOM     11  C   UNL     1      -7.786   1.123   1.795  1.00  0.00     0.003 C 
BRANCH  11  12
ATOM     12  C   UNL     1      -7.641   1.694   3.231  1.00  0.00    -0.017 C 
ATOM     13  C   UNL     1      -7.375   0.609   4.287  1.00  0.00     0.007 C 
ATOM     14  C   UNL     1      -6.597   2.815   3.329  1.00  0.00     0.007 C 
ENDBRANCH  11  12
ENDBRANCH  10  11
ENDBRANCH   9  10
ENDBRANCH   7   9
ENDBRANCH   6   7
ENDBRANCH   5   6
ENDBRANCH   4   5
ENDBRANCH   2   4
ENDBRANCH   1   2
BRANCH   1  15
ATOM     15  C   UNL     1      -0.553  -2.148  -2.130  1.00  0.00     0.004 C 
BRANCH  15  16
ATOM     16  C   UNL     1       0.952  -1.840  -2.232  1.00  0.00     0.048 C 
BRANCH  16  17
ATOM     17  C   UNL     1       1.897  -2.941  -1.667  1.00  0.00     0.107 C 
ATOM     18  C   UNL     1       1.735  -4.256  -2.450  1.00  0.00     0.056 C 
ATOM     19  C   UNL     1       1.690  -3.211  -0.160  1.00  0.00     0.053 C 
ATOM     20  O   UNL     1       3.240  -2.499  -1.861  1.00  0.00    -0.487 OA
ATOM     21  C   UNL     1       2.046  -1.986   0.688  1.00  0.00     0.044 C 
ATOM     22  C   UNL     1       3.902  -1.620  -0.993  1.00  0.00     0.127 A 
ATOM     23  C   UNL     1       3.361  -1.345   0.280  1.00  0.00     0.001 A 
ATOM     24  C   UNL     1       5.108  -1.028  -1.406  1.00  0.00    -0.002 A 
ATOM     25  C   UNL     1       4.027  -0.442   1.141  1.00  0.00    -0.001 A 
ATOM     26  C   UNL     1       5.750  -0.089  -0.564  1.00  0.00    -0.001 A 
ATOM     27  C   UNL     1       5.656  -1.341  -2.781  1.00  0.00     0.049 C 
ATOM     28  C   UNL     1       3.465  -0.139   2.513  1.00  0.00     0.049 C 
ATOM     29  C   UNL     1       5.246   0.141   0.738  1.00  0.00     0.137 A 
ATOM     30  C   UNL     1       6.957   0.676  -1.056  1.00  0.00     0.049 C 
BRANCH  29  31
ATOM     31  O   UNL     1       5.935   0.970   1.637  1.00  0.00    -0.426 OA
BRANCH  31  32
ATOM     32  C   UNL     1       7.235   0.710   2.084  1.00  0.00     0.311 C 
ATOM     33  O   UNL     1       7.808  -0.380   1.805  1.00  0.00    -0.252 OA
BRANCH  32  34
ATOM     34  C   UNL     1       7.959   1.746   2.883  1.00  0.00     0.135 C 
BRANCH  34  35
ATOM     35  C   UNL     1       8.603   2.774   1.951  1.00  0.00     0.134 C 
BRANCH  35  36
ATOM     36  C   UNL     1       9.323   3.817   2.744  1.00  0.00     0.303 C 
ATOM     37  O   UNL     1      10.519   3.628   3.096  1.00  0.00    -0.252 OA
BRANCH  36  38
ATOM     38  O   UNL     1       8.658   4.974   3.132  1.00  0.00    -0.481 OA
ATOM     39  H   UNL     1       9.126   5.680   3.686  1.00  0.00     0.296 HD
ENDBRANCH  36  38
ENDBRANCH  35  36
ENDBRANCH  34  35
ENDBRANCH  32  34
ENDBRANCH  31  32
ENDBRANCH  29  31
ENDBRANCH  16  17
ENDBRANCH  15  16
ENDBRANCH   1  15
TORSDOF 18
