REMARK SMILES O=C1CN=C(c2ccccc2)c2cc(Cl)ccc2N1
REMARK SMILES IDX 15 1 14 2 16 3 17 4 18 5 12 6 13 7 5 8 4 9 6 10 7 11 11 12
REMARK SMILES IDX 8 13 10 14 9 15 3 16 19 18 2 19 1 21
REMARK H PARENT 19 20
REMARK Flexibility Score: 90.00
ROOT
ATOM      1  Cl  UNL     1      -1.433  -2.409  -3.631  1.00  0.00    -0.084 Cl
ATOM      2  C   UNL     1      -1.703  -1.585  -2.105  1.00  0.00     0.041 A 
ATOM      3  C   UNL     1      -2.896  -1.779  -1.410  1.00  0.00     0.023 A 
ATOM      4  C   UNL     1      -3.115  -1.120  -0.201  1.00  0.00     0.028 A 
ATOM      5  C   UNL     1      -2.148  -0.251   0.330  1.00  0.00     0.050 A 
ATOM      6  C   UNL     1      -0.914  -0.081  -0.355  1.00  0.00     0.025 A 
ATOM      7  C   UNL     1      -0.719  -0.744  -1.582  1.00  0.00     0.033 A 
ENDROOT
BRANCH   6   8
ATOM      8  C   UNL     1       0.209   0.739   0.196  1.00  0.00     0.075 C 
ATOM      9  N   UNL     1       0.005   1.921   0.704  1.00  0.00    -0.274 NA
BRANCH   8  10
ATOM     10  C   UNL     1       1.604   0.228   0.148  1.00  0.00     0.000 A 
ATOM     11  C   UNL     1       1.870  -1.152   0.250  1.00  0.00     0.010 A 
ATOM     12  C   UNL     1       2.686   1.121   0.028  1.00  0.00     0.010 A 
ATOM     13  C   UNL     1       3.185  -1.625   0.213  1.00  0.00     0.001 A 
ATOM     14  C   UNL     1       3.999   0.642  -0.008  1.00  0.00     0.001 A 
ATOM     15  C   UNL     1       4.248  -0.729   0.082  1.00  0.00     0.000 A 
ENDBRANCH   8  10
BRANCH   9  16
ATOM     16  C   UNL     1      -1.294   2.563   0.842  1.00  0.00     0.243 CG0
ATOM     17  G   UNL     1      -2.119   1.788   1.816  1.00  0.00     0.000 G0
ENDBRANCH   9  16
ENDBRANCH   6   8
BRANCH   5  18
ATOM     18  N   UNL     1      -2.440   0.415   1.570  1.00  0.00    -0.324 N 
ATOM     19  C   UNL     1      -2.119   1.788   1.816  1.00  0.00     0.246 CG0
ATOM     20  H   UNL     1      -3.088  -0.054   2.243  1.00  0.00     0.170 HD
ATOM     21  O   UNL     1      -2.531   2.346   2.868  1.00  0.00    -0.273 OA
ATOM     22  G   UNL     1      -1.294   2.563   0.842  1.00  0.00     0.000 G0
ENDBRANCH   5  18
TORSDOF 1
