REMARK SMILES COc1ccsc1CNCC[C@@]1(c2ccccn2)CCOC2(CCCC2)C1
REMARK SMILES IDX 10 1 9 2 8 4 7 5 3 6 4 7 6 8 5 9 2 10 1 11 11 12 12 13 19 14
REMARK SMILES IDX 27 15 20 16 22 17 21 18 23 19 26 20 24 21 25 22 13 23 18 24
REMARK SMILES IDX 14 25 17 26 15 27 16 28
REMARK H PARENT 9 3
REMARK Flexibility Score: inf
ROOT
ATOM      1  C   UNL     1       1.124  -0.390   0.428  1.00  0.00     0.082 C 
ENDROOT
BRANCH   1   2
ATOM      2  N   UNL     1       2.540  -0.779   0.319  1.00  0.00    -0.312 NA
ATOM      3  H   UNL     1       2.613  -1.725  -0.123  1.00  0.00     0.123 HD
BRANCH   2   4
ATOM      4  C   UNL     1       3.315   0.187  -0.469  1.00  0.00     0.131 C 
BRANCH   4   5
ATOM      5  C   UNL     1       4.766  -0.176  -0.421  1.00  0.00     0.060 A 
ATOM      6  C   UNL     1       5.649   0.112   0.613  1.00  0.00     0.134 A 
ATOM      7  C   UNL     1       6.935  -0.421   0.410  1.00  0.00     0.058 A 
ATOM      8  S   UNL     1       5.567  -1.115  -1.562  1.00  0.00    -0.144 S 
ATOM      9  C   UNL     1       7.053  -1.140  -0.774  1.00  0.00     0.069 A 
BRANCH   6  10
ATOM     10  O   UNL     1       5.261   0.855   1.735  1.00  0.00    -0.496 OA
ATOM     11  C   UNL     1       6.122   1.125   2.835  1.00  0.00     0.278 C 
ENDBRANCH   6  10
ENDBRANCH   4   5
ENDBRANCH   2   4
ENDBRANCH   1   2
BRANCH   1  12
ATOM     12  C   UNL     1       0.295  -0.852  -0.797  1.00  0.00     0.029 C 
BRANCH  12  13
ATOM     13  C   UNL     1      -1.124  -0.188  -0.897  1.00  0.00     0.019 C 
ATOM     14  C   UNL     1      -1.808  -0.718  -2.185  1.00  0.00     0.042 C 
ATOM     15  C   UNL     1      -1.956  -0.597   0.384  1.00  0.00     0.049 C 
ATOM     16  C   UNL     1      -2.696  -1.914  -1.880  1.00  0.00     0.162 C 
ATOM     17  C   UNL     1      -3.466  -1.025   0.171  1.00  0.00     0.069 C 
ATOM     18  O   UNL     1      -3.807  -1.471  -1.141  1.00  0.00    -0.375 OA
ATOM     19  C   UNL     1      -3.866  -2.128   1.162  1.00  0.00     0.035 C 
ATOM     20  C   UNL     1      -4.442   0.100   0.534  1.00  0.00     0.035 C 
ATOM     21  C   UNL     1      -5.375  -2.017   1.325  1.00  0.00     0.003 C 
ATOM     22  C   UNL     1      -5.738  -0.579   0.968  1.00  0.00     0.003 C 
BRANCH  13  23
ATOM     23  C   UNL     1      -0.939   1.331  -1.067  1.00  0.00     0.047 A 
ATOM     24  N   UNL     1       0.099   1.781  -1.835  1.00  0.00    -0.261 NA
ATOM     25  C   UNL     1      -1.837   2.281  -0.543  1.00  0.00     0.024 A 
ATOM     26  C   UNL     1       0.319   3.100  -2.078  1.00  0.00     0.111 A 
ATOM     27  C   UNL     1      -1.633   3.641  -0.785  1.00  0.00     0.003 A 
ATOM     28  C   UNL     1      -0.549   4.057  -1.554  1.00  0.00     0.020 A 
ENDBRANCH  13  23
ENDBRANCH  12  13
ENDBRANCH   1  12
TORSDOF 7
