REMARK SMILES NC(=O)N1c2ccccc2C[C@H](O)c2ccccc21
REMARK SMILES IDX 14 1 19 2 18 3 17 4 16 5 15 6 4 7 2 8 1 9 3 12 5 13 10 14
REMARK SMILES IDX 6 15 9 16 7 17 8 18 11 19 12 21 13 23
REMARK H PARENT 1 10 1 11 13 24
REMARK Flexibility Score: 80.00
ROOT
ATOM      1  C   UNL     1      -1.562  -0.787   0.539  1.00  0.00     0.005 A 
ATOM      2  C   UNL     1      -1.319   0.462  -0.046  1.00  0.00     0.056 A 
ATOM      3  C   UNL     1      -2.304   1.076  -0.834  1.00  0.00     0.027 A 
ATOM      4  C   UNL     1      -3.527   0.436  -1.050  1.00  0.00     0.002 A 
ATOM      5  C   UNL     1      -3.767  -0.820  -0.489  1.00  0.00     0.001 A 
ATOM      6  C   UNL     1      -2.788  -1.437   0.296  1.00  0.00     0.008 A 
ENDROOT
BRANCH   2   7
ATOM      7  N   UNL     1      -0.049   1.096   0.154  1.00  0.00    -0.263 N 
BRANCH   7   8
ATOM      8  C   UNL     1       0.027   2.301   0.944  1.00  0.00     0.323 C 
ATOM      9  N   UNL     1       1.264   2.727   1.520  1.00  0.00    -0.351 N 
ATOM     10  H   UNL     1       1.309   3.618   2.063  1.00  0.00     0.161 HD
ATOM     11  H   UNL     1       2.122   2.135   1.467  1.00  0.00     0.161 HD
ATOM     12  O   UNL     1      -1.014   2.976   1.168  1.00  0.00    -0.248 OA
ENDBRANCH   7   8
BRANCH   7  13
ATOM     13  C   UNL     1       1.127   0.520  -0.452  1.00  0.00     0.054 A 
ATOM     14  C   UNL     1       1.459  -0.867  -0.338  1.00  0.00    -0.021 A 
ATOM     15  C   UNL     1       1.959   1.363  -1.212  1.00  0.00     0.027 A 
ATOM     16  C   UNL     1       2.616  -1.336  -0.991  1.00  0.00     0.006 A 
ATOM     17  C   UNL     1       3.103   0.870  -1.838  1.00  0.00     0.002 A 
ATOM     18  C   UNL     1       3.431  -0.477  -1.726  1.00  0.00     0.000 A 
BRANCH  14  19
ATOM     19  C   UNL     1       0.646  -1.923   0.404  1.00  0.00     0.074 CG0
ATOM     20  G   UNL     1      -0.453  -1.422   1.348  1.00  0.00     0.000 G0
ENDBRANCH  14  19
ENDBRANCH   7  13
ENDBRANCH   2   7
BRANCH   1  21
ATOM     21  C   UNL     1      -0.453  -1.422   1.348  1.00  0.00     0.151 CG0
ATOM     22  G   UNL     1       0.646  -1.923   0.404  1.00  0.00     0.000 G0
BRANCH  21  23
ATOM     23  O   UNL     1      -0.932  -2.502   2.109  1.00  0.00    -0.388 OA
ATOM     24  H   UNL     1      -1.437  -2.114   2.870  1.00  0.00     0.211 HD
ENDBRANCH  21  23
ENDBRANCH   1  21
TORSDOF 2
