REMARK SMILES CCCC(=O)O[C@]1(C(=O)COC(=O)CC)CC[C@H]2[C@@H]3CCC4=CC(=O)CC[C@]4(C)[C@H]3[C@@H](O)C[C@@]21C
REMARK SMILES IDX 18 1 17 2 16 3 7 4 34 5 35 6 33 7 31 8 30 9 19 10 20 11
REMARK SMILES IDX 21 12 22 13 23 14 24 15 25 16 26 17 27 18 28 19 29 20 6 21
REMARK SMILES IDX 4 22 5 23 3 24 2 25 1 26 8 27 9 28 10 29 11 30 12 31 13 32
REMARK SMILES IDX 14 33 15 34 32 35
REMARK H PARENT 32 36
REMARK Flexibility Score: inf
ROOT
ATOM      1  C   UNL     1       0.148  -0.728   0.221  1.00  0.00     0.003 C 
ATOM      2  C   UNL     1      -1.046  -1.666   0.168  1.00  0.00     0.009 C 
ATOM      3  C   UNL     1      -2.058  -0.964  -0.758  1.00  0.00     0.058 C 
ATOM      4  C   UNL     1      -1.359   0.320  -1.303  1.00  0.00     0.179 C 
ATOM      5  C   UNL     1       0.157  -0.037  -1.149  1.00  0.00     0.020 C 
ATOM      6  C   UNL     1       0.616  -0.979  -2.305  1.00  0.00     0.016 C 
ATOM      7  C   UNL     1       1.110   1.180  -1.055  1.00  0.00     0.043 C 
ATOM      8  C   UNL     1       2.540   0.808  -0.565  1.00  0.00     0.119 C 
ATOM      9  C   UNL     1       2.550  -0.123   0.698  1.00  0.00     0.031 C 
ATOM     10  C   UNL     1       1.524  -1.303   0.630  1.00  0.00    -0.000 C 
ATOM     11  C   UNL     1       1.413  -1.975   2.016  1.00  0.00     0.009 C 
ATOM     12  C   UNL     1       2.761  -2.475   2.522  1.00  0.00     0.032 C 
ATOM     13  C   UNL     1       3.787  -1.365   2.505  1.00  0.00    -0.060 C 
ATOM     14  C   UNL     1       4.614  -1.224   3.559  1.00  0.00     0.047 C 
ATOM     15  C   UNL     1       5.750  -0.291   3.538  1.00  0.00     0.155 C 
ATOM     16  O   UNL     1       6.470  -0.146   4.565  1.00  0.00    -0.295 OA
ATOM     17  C   UNL     1       6.118   0.395   2.266  1.00  0.00     0.081 C 
ATOM     18  C   UNL     1       4.856   0.693   1.461  1.00  0.00     0.020 C 
ATOM     19  C   UNL     1       3.981  -0.574   1.202  1.00  0.00    -0.005 C 
ATOM     20  C   UNL     1       4.715  -1.497   0.195  1.00  0.00     0.016 C 
ENDROOT
BRANCH   4  21
ATOM     21  O   UNL     1      -1.635   1.428  -0.430  1.00  0.00    -0.450 OA
BRANCH  21  22
ATOM     22  C   UNL     1      -2.878   2.014  -0.192  1.00  0.00     0.306 C 
ATOM     23  O   UNL     1      -3.924   1.590  -0.751  1.00  0.00    -0.252 OA
BRANCH  22  24
ATOM     24  C   UNL     1      -2.954   3.180   0.739  1.00  0.00     0.122 C 
BRANCH  24  25
ATOM     25  C   UNL     1      -3.070   2.716   2.201  1.00  0.00     0.008 C 
ATOM     26  C   UNL     1      -3.072   3.913   3.154  1.00  0.00     0.004 C 
ENDBRANCH  24  25
ENDBRANCH  22  24
ENDBRANCH  21  22
ENDBRANCH   4  21
BRANCH   4  27
ATOM     27  C   UNL     1      -1.738   0.721  -2.726  1.00  0.00     0.214 C 
ATOM     28  O   UNL     1      -1.243   1.736  -3.190  1.00  0.00    -0.291 OA
BRANCH  27  29
ATOM     29  C   UNL     1      -2.694  -0.064  -3.590  1.00  0.00     0.312 C 
BRANCH  29  30
ATOM     30  O   UNL     1      -3.972  -0.133  -2.962  1.00  0.00    -0.457 OA
BRANCH  30  31
ATOM     31  C   UNL     1      -5.025  -0.902  -3.463  1.00  0.00     0.305 C 
ATOM     32  O   UNL     1      -4.892  -1.551  -4.548  1.00  0.00    -0.252 OA
BRANCH  31  33
ATOM     33  C   UNL     1      -6.352  -0.908  -2.757  1.00  0.00     0.119 C 
ATOM     34  C   UNL     1      -6.183  -1.195  -1.272  1.00  0.00     0.016 C 
ENDBRANCH  31  33
ENDBRANCH  30  31
ENDBRANCH  29  30
ENDBRANCH  27  29
ENDBRANCH   4  27
BRANCH   8  35
ATOM     35  O   UNL     1       3.309   0.274  -1.613  1.00  0.00    -0.393 OA
ATOM     36  H   UNL     1       3.456   1.002  -2.274  1.00  0.00     0.210 HD
ENDBRANCH   8  35
TORSDOF 10
