REMARK SMILES Cn1c(=O)c2[nH]c(Cl)nc2n(C)c1=O
REMARK SMILES IDX 12 1 11 2 10 3 5 4 6 5 7 6 8 7 9 8 3 9 4 10 2 11 1 12 13 13
REMARK SMILES IDX 14 14
REMARK H PARENT 6 15
REMARK Flexibility Score: inf
ROOT
ATOM      1  C   UNL     1      -0.678   2.578   0.517  1.00  0.00     0.157 C 
ATOM      2  N   UNL     1      -0.243   1.213   0.192  1.00  0.00    -0.279 N 
ATOM      3  C   UNL     1      -1.145   0.199   0.093  1.00  0.00     0.169 A 
ATOM      4  C   UNL     1      -0.772  -1.074  -0.155  1.00  0.00     0.151 A 
ATOM      5  N   UNL     1      -1.854  -1.862  -0.183  1.00  0.00    -0.323 N 
ATOM      6  C   UNL     1      -2.875  -1.005   0.058  1.00  0.00     0.202 A 
ATOM      7  Cl  UNL     1      -4.550  -1.510   0.139  1.00  0.00    -0.043 Cl
ATOM      8  N   UNL     1      -2.482   0.284   0.238  1.00  0.00    -0.199 NA
ATOM      9  C   UNL     1       0.563  -1.402  -0.316  1.00  0.00     0.282 A 
ATOM     10  O   UNL     1       0.902  -2.599  -0.528  1.00  0.00    -0.267 OA
ATOM     11  N   UNL     1       1.496  -0.393  -0.229  1.00  0.00    -0.261 N 
ATOM     12  C   UNL     1       2.929  -0.707  -0.356  1.00  0.00     0.159 C 
ATOM     13  C   UNL     1       1.094   0.903   0.056  1.00  0.00     0.332 A 
ATOM     14  O   UNL     1       1.962   1.811   0.200  1.00  0.00    -0.247 OA
ATOM     15  H   UNL     1      -1.902  -2.893  -0.344  1.00  0.00     0.169 HD
ENDROOT
TORSDOF 0
