REMARK SMILES CCCCC(=O)O[C@]1(C(=O)CO)CC[C@H]2[C@@H]3CCC4=CC(=O)CC[C@]4(C)[C@H]3[C@@H](O)C[C@@]21C
REMARK SMILES IDX 7 1 8 2 15 3 14 4 31 5 16 6 13 7 32 8 30 9 27 10 17 11 28 12
REMARK SMILES IDX 25 13 18 14 19 15 24 16 26 17 20 18 23 19 21 20 22 21 9 22
REMARK SMILES IDX 10 23 11 24 12 25 29 27 5 29 6 30 4 31 3 32 2 33 1 34
REMARK H PARENT 12 26 29 28
REMARK Flexibility Score: inf
ROOT
ATOM      1  O   UNL     1       2.486  -0.654   0.218  1.00  0.00    -0.450 OA
ENDROOT
BRANCH   1   2
ATOM      2  C   UNL     1       2.087   0.217   1.291  1.00  0.00     0.178 C 
ATOM      3  C   UNL     1      -0.172  -0.543   1.320  1.00  0.00     0.003 C 
ATOM      4  C   UNL     1       0.411  -1.051   2.633  1.00  0.00     0.009 C 
ATOM      5  C   UNL     1       0.637   0.722   1.001  1.00  0.00     0.020 C 
ATOM      6  C   UNL     1      -1.701  -0.344   1.207  1.00  0.00    -0.000 C 
ATOM      7  C   UNL     1       1.895  -0.637   2.585  1.00  0.00     0.058 C 
ATOM      8  C   UNL     1       0.295   1.923   1.948  1.00  0.00     0.016 C 
ATOM      9  C   UNL     1       0.351   1.104  -0.478  1.00  0.00     0.043 C 
ATOM     10  C   UNL     1      -2.037   0.088  -0.263  1.00  0.00     0.031 C 
ATOM     11  C   UNL     1      -2.428  -1.659   1.546  1.00  0.00     0.009 C 
ATOM     12  C   UNL     1      -1.164   1.294  -0.765  1.00  0.00     0.119 C 
ATOM     13  C   UNL     1      -3.593   0.220  -0.536  1.00  0.00    -0.005 C 
ATOM     14  C   UNL     1      -3.938  -1.514   1.397  1.00  0.00     0.032 C 
ATOM     15  C   UNL     1      -4.298  -1.030   0.014  1.00  0.00    -0.060 C 
ATOM     16  C   UNL     1      -3.826   0.328  -2.078  1.00  0.00     0.020 C 
ATOM     17  C   UNL     1      -4.221   1.453   0.166  1.00  0.00     0.016 C 
ATOM     18  C   UNL     1      -5.367  -1.571  -0.600  1.00  0.00     0.047 C 
ATOM     19  C   UNL     1      -5.298   0.186  -2.476  1.00  0.00     0.081 C 
ATOM     20  C   UNL     1      -5.884  -1.048  -1.871  1.00  0.00     0.155 C 
ATOM     21  O   UNL     1      -6.868  -1.608  -2.422  1.00  0.00    -0.295 OA
BRANCH   2  22
ATOM     22  C   UNL     1       3.092   1.373   1.384  1.00  0.00     0.202 C 
ATOM     23  O   UNL     1       3.363   1.984   0.360  1.00  0.00    -0.293 OA
BRANCH  22  24
ATOM     24  C   UNL     1       3.779   1.795   2.659  1.00  0.00     0.236 C 
BRANCH  24  25
ATOM     25  O   UNL     1       4.768   0.864   3.007  1.00  0.00    -0.388 OA
ATOM     26  H   UNL     1       4.443   0.367   3.803  1.00  0.00     0.211 HD
ENDBRANCH  24  25
ENDBRANCH  22  24
ENDBRANCH   2  22
BRANCH  12  27
ATOM     27  O   UNL     1      -1.607   2.509  -0.222  1.00  0.00    -0.393 OA
ATOM     28  H   UNL     1      -1.250   3.234  -0.799  1.00  0.00     0.210 HD
ENDBRANCH  12  27
ENDBRANCH   1   2
BRANCH   1  29
ATOM     29  C   UNL     1       3.715  -1.319   0.111  1.00  0.00     0.306 C 
ATOM     30  O   UNL     1       4.611  -1.174   0.985  1.00  0.00    -0.252 OA
BRANCH  29  31
ATOM     31  C   UNL     1       3.950  -2.241  -1.047  1.00  0.00     0.123 C 
BRANCH  31  32
ATOM     32  C   UNL     1       3.724  -1.548  -2.402  1.00  0.00     0.011 C 
BRANCH  32  33
ATOM     33  C   UNL     1       4.931  -0.723  -2.884  1.00  0.00    -0.003 C 
ATOM     34  C   UNL     1       5.072   0.614  -2.158  1.00  0.00     0.004 C 
ENDBRANCH  32  33
ENDBRANCH  31  32
ENDBRANCH  29  31
ENDBRANCH   1  29
TORSDOF 9
