REMARK SMILES O=C(Nc1ccc(C[C@@H]2CC[C@H]([C@H](O)c3ccccc3)N2)cc1)[C@@H]1CCc2nccc(=O)n21
REMARK SMILES IDX 8 1 9 2 12 3 11 4 21 5 10 6 13 8 14 9 15 11 16 12 20 13
REMARK SMILES IDX 17 14 19 15 18 16 7 17 6 18 22 19 5 20 23 21 4 22 3 23 2 24
REMARK SMILES IDX 1 26 24 27 25 28 33 29 26 30 27 31 31 32 28 33 30 34 32 35
REMARK SMILES IDX 29 36
REMARK H PARENT 21 7 14 10 3 25
REMARK Flexibility Score: inf
ROOT
ATOM      1  C   UNL     1      -1.447   0.117  -1.151  1.00  0.00     0.054 C 
ENDROOT
BRANCH   1   2
ATOM      2  C   UNL     1      -2.427  -0.037   0.029  1.00  0.00     0.058 C 
ATOM      3  C   UNL     1      -4.623  -0.414   0.646  1.00  0.00     0.087 C 
ATOM      4  C   UNL     1      -3.863  -1.668   1.092  1.00  0.00     0.023 C 
ATOM      5  N   UNL     1      -3.804   0.249  -0.374  1.00  0.00    -0.308 NA
ATOM      6  C   UNL     1      -2.429  -1.440   0.637  1.00  0.00     0.021 C 
ATOM      7  H   UNL     1      -3.977  -0.217  -1.297  1.00  0.00     0.123 HD
BRANCH   3   8
ATOM      8  C   UNL     1      -6.071  -0.698   0.171  1.00  0.00     0.161 C 
BRANCH   8   9
ATOM      9  O   UNL     1      -6.079  -1.530  -0.965  1.00  0.00    -0.387 OA
ATOM     10  H   UNL     1      -6.219  -2.463  -0.650  1.00  0.00     0.211 HD
ENDBRANCH   8   9
BRANCH   8  11
ATOM     11  C   UNL     1      -6.789   0.600  -0.131  1.00  0.00    -0.018 A 
ATOM     12  C   UNL     1      -7.451   1.290   0.900  1.00  0.00     0.006 A 
ATOM     13  C   UNL     1      -6.759   1.168  -1.420  1.00  0.00     0.006 A 
ATOM     14  C   UNL     1      -8.073   2.516   0.648  1.00  0.00     0.000 A 
ATOM     15  C   UNL     1      -7.389   2.392  -1.669  1.00  0.00     0.000 A 
ATOM     16  C   UNL     1      -8.040   3.068  -0.634  1.00  0.00     0.000 A 
ENDBRANCH   8  11
ENDBRANCH   3   8
ENDBRANCH   1   2
BRANCH   1  17
ATOM     17  C   UNL     1      -0.014  -0.014  -0.700  1.00  0.00    -0.046 A 
ATOM     18  C   UNL     1       0.607   1.039  -0.012  1.00  0.00     0.006 A 
ATOM     19  C   UNL     1       0.707  -1.193  -0.945  1.00  0.00     0.006 A 
ATOM     20  C   UNL     1       1.928   0.916   0.425  1.00  0.00     0.026 A 
ATOM     21  C   UNL     1       2.034  -1.312  -0.519  1.00  0.00     0.026 A 
ATOM     22  C   UNL     1       2.653  -0.262   0.189  1.00  0.00     0.041 A 
BRANCH  22  23
ATOM     23  N   UNL     1       4.027  -0.333   0.615  1.00  0.00    -0.324 N 
ATOM     24  C   UNL     1       4.791  -1.546   0.737  1.00  0.00     0.247 C 
ATOM     25  H   UNL     1       4.513   0.564   0.843  1.00  0.00     0.170 HD
ATOM     26  O   UNL     1       4.216  -2.641   0.981  1.00  0.00    -0.272 OA
BRANCH  24  27
ATOM     27  C   UNL     1       6.298  -1.506   0.682  1.00  0.00     0.182 C 
ATOM     28  C   UNL     1       6.900  -1.108   2.052  1.00  0.00     0.044 C 
ATOM     29  N   UNL     1       6.762  -0.482  -0.245  1.00  0.00    -0.284 N 
ATOM     30  C   UNL     1       7.650   0.218   1.835  1.00  0.00     0.078 C 
ATOM     31  C   UNL     1       7.485   0.457   0.387  1.00  0.00     0.112 A 
ATOM     32  C   UNL     1       6.526  -0.412  -1.586  1.00  0.00     0.254 A 
ATOM     33  N   UNL     1       7.989   1.525  -0.284  1.00  0.00    -0.243 NA
ATOM     34  C   UNL     1       7.033   0.674  -2.307  1.00  0.00     0.092 A 
ATOM     35  O   UNL     1       5.863  -1.309  -2.172  1.00  0.00    -0.269 OA
ATOM     36  C   UNL     1       7.770   1.648  -1.622  1.00  0.00     0.119 A 
ENDBRANCH  24  27
ENDBRANCH  22  23
ENDBRANCH   1  17
TORSDOF 7
