REMARK SMILES CC(=O)OCC(=O)[C@@]1(O)CC[C@H]2[C@@H]3CCC4=CC(=O)CC[C@]4(C)[C@H]3[C@@H](O)C[C@@]21C
REMARK SMILES IDX 5 1 6 2 7 3 8 4 12 5 11 6 28 7 13 8 10 9 29 10 27 11 24 12
REMARK SMILES IDX 14 13 25 14 22 15 15 16 16 17 21 18 23 19 17 20 20 21 18 22
REMARK SMILES IDX 19 23 9 24 26 26 4 28 2 29 1 30 3 31
REMARK H PARENT 9 25 26 27
REMARK Flexibility Score: inf
ROOT
ATOM      1  C   UNL     1       4.086  -1.763   0.305  1.00  0.00     0.311 C 
ENDROOT
BRANCH   1   2
ATOM      2  C   UNL     1       3.730  -0.657  -0.656  1.00  0.00     0.202 C 
ATOM      3  O   UNL     1       4.272  -0.648  -1.752  1.00  0.00    -0.293 OA
BRANCH   2   4
ATOM      4  C   UNL     1       2.661   0.381  -0.303  1.00  0.00     0.132 C 
ATOM      5  C   UNL     1       0.396   1.133  -0.544  1.00  0.00     0.002 C 
ATOM      6  C   UNL     1       1.192   2.004  -1.510  1.00  0.00     0.008 C 
ATOM      7  C   UNL     1       1.200  -0.171  -0.438  1.00  0.00     0.009 C 
ATOM      8  C   UNL     1      -1.113   0.913  -0.802  1.00  0.00    -0.000 C 
ATOM      9  C   UNL     1       2.664   1.612  -1.273  1.00  0.00     0.044 C 
ATOM     10  C   UNL     1       1.093  -1.052  -1.731  1.00  0.00     0.015 C 
ATOM     11  C   UNL     1       0.663  -0.954   0.789  1.00  0.00     0.042 C 
ATOM     12  C   UNL     1      -1.701   0.077   0.388  1.00  0.00     0.031 C 
ATOM     13  C   UNL     1      -1.835   2.272  -0.893  1.00  0.00     0.009 C 
ATOM     14  C   UNL     1      -0.868  -1.218   0.710  1.00  0.00     0.119 C 
ATOM     15  C   UNL     1      -3.268  -0.133   0.287  1.00  0.00    -0.005 C 
ATOM     16  C   UNL     1      -3.336   2.093  -1.092  1.00  0.00     0.032 C 
ATOM     17  C   UNL     1      -3.924   1.224  -0.007  1.00  0.00    -0.060 C 
ATOM     18  C   UNL     1      -3.788  -0.698   1.649  1.00  0.00     0.020 C 
ATOM     19  C   UNL     1      -3.672  -1.102  -0.857  1.00  0.00     0.016 C 
ATOM     20  C   UNL     1      -5.117   1.565   0.516  1.00  0.00     0.047 C 
ATOM     21  C   UNL     1      -5.314  -0.672   1.767  1.00  0.00     0.081 C 
ATOM     22  C   UNL     1      -5.836   0.692   1.452  1.00  0.00     0.155 C 
ATOM     23  O   UNL     1      -6.930   1.073   1.946  1.00  0.00    -0.295 OA
BRANCH   4  24
ATOM     24  O   UNL     1       2.926   0.803   1.021  1.00  0.00    -0.381 OA
ATOM     25  H   UNL     1       2.496   1.679   1.197  1.00  0.00     0.212 HD
ENDBRANCH   4  24
BRANCH  14  26
ATOM     26  O   UNL     1      -1.132  -2.240  -0.214  1.00  0.00    -0.393 OA
ATOM     27  H   UNL     1      -0.848  -3.094   0.205  1.00  0.00     0.210 HD
ENDBRANCH  14  26
ENDBRANCH   2   4
ENDBRANCH   1   2
BRANCH   1  28
ATOM     28  O   UNL     1       5.500  -1.856   0.460  1.00  0.00    -0.458 OA
BRANCH  28  29
ATOM     29  C   UNL     1       6.262  -0.915   1.161  1.00  0.00     0.303 C 
ATOM     30  C   UNL     1       7.739  -1.089   1.256  1.00  0.00     0.139 C 
ATOM     31  O   UNL     1       5.709   0.054   1.750  1.00  0.00    -0.253 OA
ENDBRANCH  28  29
ENDBRANCH   1  28
TORSDOF 6
