REMARK SMILES O=C(O)C[C@H]1CCc2c1[nH]c1ccc(OCc3ccc(C4CCCC4)c(C(F)(F)F)c3)cc21
REMARK SMILES IDX 5 1 6 2 7 3 8 4 9 5 10 6 11 7 33 8 32 9 14 10 13 11 12 12
REMARK SMILES IDX 4 14 2 15 1 16 3 17 15 19 16 20 17 21 31 22 18 23 26 24
REMARK SMILES IDX 19 25 20 26 27 27 28 28 29 29 30 30 21 31 22 32 25 33 23 34
REMARK SMILES IDX 24 35
REMARK H PARENT 10 13 3 18
REMARK Flexibility Score: inf
ROOT
ATOM      1  C   UNL     1      -6.861   0.508   0.053  1.00  0.00     0.047 C 
ATOM      2  C   UNL     1      -6.324   1.962  -0.118  1.00  0.00     0.015 C 
ATOM      3  C   UNL     1      -4.799   1.935   0.159  1.00  0.00     0.039 C 
ATOM      4  C   UNL     1      -4.607   0.595   0.745  1.00  0.00    -0.019 A 
ATOM      5  C   UNL     1      -5.717  -0.174   0.697  1.00  0.00     0.023 A 
ATOM      6  N   UNL     1      -5.424  -1.495   0.722  1.00  0.00    -0.358 N 
ATOM      7  C   UNL     1      -4.076  -1.536   0.805  1.00  0.00     0.046 A 
ATOM      8  C   UNL     1      -3.536  -0.267   0.790  1.00  0.00     0.007 A 
ATOM      9  C   UNL     1      -2.170  -0.045   0.645  1.00  0.00     0.057 A 
ATOM     10  C   UNL     1      -1.320  -1.167   0.566  1.00  0.00     0.120 A 
ATOM     11  C   UNL     1      -1.876  -2.478   0.619  1.00  0.00     0.048 A 
ATOM     12  C   UNL     1      -3.267  -2.666   0.717  1.00  0.00     0.030 A 
ATOM     13  H   UNL     1      -6.075  -2.292   0.542  1.00  0.00     0.166 HD
ENDROOT
BRANCH   1  14
ATOM     14  C   UNL     1      -8.126   0.413   0.919  1.00  0.00     0.132 C 
BRANCH  14  15
ATOM     15  C   UNL     1      -9.285   1.089   0.253  1.00  0.00     0.304 C 
ATOM     16  O   UNL     1      -9.824   2.097   0.787  1.00  0.00    -0.252 OA
BRANCH  15  17
ATOM     17  O   UNL     1      -9.767   0.602  -0.960  1.00  0.00    -0.481 OA
ATOM     18  H   UNL     1     -10.546   1.052  -1.426  1.00  0.00     0.296 HD
ENDBRANCH  15  17
ENDBRANCH  14  15
ENDBRANCH   1  14
BRANCH  10  19
ATOM     19  O   UNL     1       0.056  -0.944   0.415  1.00  0.00    -0.489 OA
BRANCH  19  20
ATOM     20  C   UNL     1       1.027  -1.978   0.272  1.00  0.00     0.265 C 
BRANCH  20  21
ATOM     21  C   UNL     1       2.372  -1.362   0.015  1.00  0.00    -0.010 A 
ATOM     22  C   UNL     1       2.765  -1.053  -1.293  1.00  0.00     0.020 A 
ATOM     23  C   UNL     1       3.214  -1.037   1.081  1.00  0.00     0.007 A 
ATOM     24  C   UNL     1       4.015  -0.453  -1.560  1.00  0.00     0.059 A 
ATOM     25  C   UNL     1       4.454  -0.449   0.843  1.00  0.00     0.005 A 
ATOM     26  C   UNL     1       4.888  -0.163  -0.469  1.00  0.00    -0.033 A 
BRANCH  24  27
ATOM     27  C   UNL     1       4.390  -0.141  -2.999  1.00  0.00     0.416 C 
ATOM     28  F   UNL     1       3.371  -0.457  -3.882  1.00  0.00    -0.166 F 
ATOM     29  F   UNL     1       5.505  -0.876  -3.359  1.00  0.00    -0.166 F 
ATOM     30  F   UNL     1       4.658   1.209  -3.131  1.00  0.00    -0.166 F 
ENDBRANCH  24  27
BRANCH  26  31
ATOM     31  C   UNL     1       6.271   0.461  -0.658  1.00  0.00     0.020 C 
ATOM     32  C   UNL     1       6.370   1.861  -0.046  1.00  0.00     0.008 C 
ATOM     33  C   UNL     1       7.403  -0.370  -0.029  1.00  0.00     0.008 C 
ATOM     34  C   UNL     1       7.809   1.990   0.421  1.00  0.00     0.001 C 
ATOM     35  C   UNL     1       8.223   0.588   0.832  1.00  0.00     0.001 C 
ENDBRANCH  26  31
ENDBRANCH  20  21
ENDBRANCH  19  20
ENDBRANCH  10  19
TORSDOF 8
