REMARK SMILES NC(=O)OC[C@H](N)Cc1ccccc1
REMARK SMILES IDX 5 1 6 2 7 3 8 6 9 7 10 8 14 9 11 10 13 11 12 12 4 13 2 14
REMARK SMILES IDX 1 15 3 16
REMARK H PARENT 7 4 7 5 1 17 1 18
REMARK Flexibility Score: inf
ROOT
ATOM      1  C   UNL     1       1.798  -0.931  -0.258  1.00  0.00     0.253 C 
ENDROOT
BRANCH   1   2
ATOM      2  C   UNL     1       0.678  -1.973  -0.071  1.00  0.00     0.093 C 
BRANCH   2   3
ATOM      3  N   UNL     1       1.169  -3.292  -0.476  1.00  0.00    -0.325 NA
ATOM      4  H   UNL     1       0.421  -3.998  -0.285  1.00  0.00     0.119 HD
ATOM      5  H   UNL     1       1.967  -3.556   0.147  1.00  0.00     0.119 HD
ENDBRANCH   2   3
BRANCH   2   6
ATOM      6  C   UNL     1      -0.580  -1.622  -0.899  1.00  0.00     0.057 C 
BRANCH   6   7
ATOM      7  C   UNL     1      -1.240  -0.344  -0.442  1.00  0.00    -0.046 A 
ATOM      8  C   UNL     1      -1.104   0.837  -1.192  1.00  0.00     0.004 A 
ATOM      9  C   UNL     1      -1.966  -0.315   0.761  1.00  0.00     0.004 A 
ATOM     10  C   UNL     1      -1.684   2.027  -0.743  1.00  0.00     0.000 A 
ATOM     11  C   UNL     1      -2.545   0.878   1.205  1.00  0.00     0.000 A 
ATOM     12  C   UNL     1      -2.403   2.048   0.455  1.00  0.00     0.000 A 
ENDBRANCH   6   7
ENDBRANCH   2   6
ENDBRANCH   1   2
BRANCH   1  13
ATOM     13  O   UNL     1       1.454   0.284   0.400  1.00  0.00    -0.448 OA
BRANCH  13  14
ATOM     14  C   UNL     1       2.250   1.430   0.342  1.00  0.00     0.404 C 
ATOM     15  N   UNL     1       1.809   2.623   0.984  1.00  0.00    -0.335 N 
ATOM     16  O   UNL     1       3.349   1.421  -0.276  1.00  0.00    -0.225 OA
ATOM     17  H   UNL     1       0.894   2.640   1.486  1.00  0.00     0.163 HD
ATOM     18  H   UNL     1       2.391   3.489   0.951  1.00  0.00     0.163 HD
ENDBRANCH  13  14
ENDBRANCH   1  13
TORSDOF 6
