REMARK SMILES O=C(O)CC[C@H](NC(=O)N[C@@H](CCCCNC(=O)c1ccc([18F])nc1)C(=O)O)C(=O)O
REMARK SMILES IDX 11 1 10 2 7 3 8 4 9 6 6 8 5 9 4 10 2 11 1 12 3 13 29 15
REMARK SMILES IDX 30 16 31 17 12 19 13 20 14 21 15 22 16 23 17 24 18 26 19 27
REMARK SMILES IDX 20 28 25 29 21 30 24 31 22 32 23 33 26 34 27 35 28 36
REMARK H PARENT 7 5 10 7 3 14 31 18 16 25 28 37
REMARK Flexibility Score: inf
ROOT
ATOM      1  C   UNL     1      -1.048  -1.394   1.680  1.00  0.00     0.193 C 
ENDROOT
BRANCH   1   2
ATOM      2  N   UNL     1      -2.173  -0.459   1.594  1.00  0.00    -0.325 N 
ATOM      3  N   UNL     1      -3.946   0.747   0.347  1.00  0.00    -0.325 N 
ATOM      4  C   UNL     1      -2.876  -0.209   0.368  1.00  0.00     0.316 C 
ATOM      5  H   UNL     1      -4.137   1.296   1.217  1.00  0.00     0.166 HD
ATOM      6  O   UNL     1      -2.556  -0.827  -0.685  1.00  0.00    -0.249 OA
ATOM      7  H   UNL     1      -2.386   0.153   2.416  1.00  0.00     0.166 HD
BRANCH   3   8
ATOM      8  C   UNL     1      -4.665   1.100  -0.882  1.00  0.00     0.194 C 
BRANCH   8   9
ATOM      9  C   UNL     1      -6.136   1.433  -0.576  1.00  0.00     0.049 C 
BRANCH   9  10
ATOM     10  C   UNL     1      -6.892   0.214  -0.031  1.00  0.00     0.125 C 
BRANCH  10  11
ATOM     11  C   UNL     1      -8.326   0.556   0.223  1.00  0.00     0.303 C 
ATOM     12  O   UNL     1      -9.188   0.370  -0.677  1.00  0.00    -0.252 OA
BRANCH  11  13
ATOM     13  O   UNL     1      -8.700   1.114   1.442  1.00  0.00    -0.481 OA
ATOM     14  H   UNL     1      -9.664   1.368   1.621  1.00  0.00     0.296 HD
ENDBRANCH  11  13
ENDBRANCH  10  11
ENDBRANCH   9  10
ENDBRANCH   8   9
BRANCH   8  15
ATOM     15  C   UNL     1      -3.994   2.272  -1.539  1.00  0.00     0.326 C 
ATOM     16  O   UNL     1      -3.693   3.295  -0.865  1.00  0.00    -0.250 OA
BRANCH  15  17
ATOM     17  O   UNL     1      -3.734   2.243  -2.906  1.00  0.00    -0.480 OA
ATOM     18  H   UNL     1      -3.296   3.031  -3.369  1.00  0.00     0.296 HD
ENDBRANCH  15  17
ENDBRANCH   8  15
ENDBRANCH   3   8
ENDBRANCH   1   2
BRANCH   1  19
ATOM     19  C   UNL     1       0.268  -0.653   1.375  1.00  0.00     0.037 C 
BRANCH  19  20
ATOM     20  C   UNL     1       1.455  -1.621   1.226  1.00  0.00     0.005 C 
BRANCH  20  21
ATOM     21  C   UNL     1       2.792  -0.892   1.025  1.00  0.00     0.021 C 
BRANCH  21  22
ATOM     22  C   UNL     1       2.895  -0.205  -0.343  1.00  0.00     0.116 C 
BRANCH  22  23
ATOM     23  N   UNL     1       4.249   0.305  -0.553  1.00  0.00    -0.352 N 
ATOM     24  C   UNL     1       5.336  -0.547  -0.956  1.00  0.00     0.252 C 
ATOM     25  H   UNL     1       4.420   1.316  -0.355  1.00  0.00     0.163 HD
ATOM     26  O   UNL     1       5.134  -1.783  -1.107  1.00  0.00    -0.269 OA
BRANCH  24  27
ATOM     27  C   UNL     1       6.697  -0.004  -1.182  1.00  0.00     0.058 A 
ATOM     28  C   UNL     1       7.820  -0.839  -1.053  1.00  0.00     0.020 A 
ATOM     29  C   UNL     1       6.905   1.339  -1.548  1.00  0.00     0.128 A 
ATOM     30  C   UNL     1       9.103  -0.330  -1.262  1.00  0.00     0.061 A 
ATOM     31  N   UNL     1       8.166   1.808  -1.750  1.00  0.00    -0.227 NA
ATOM     32  C   UNL     1       9.258   1.012  -1.610  1.00  0.00     0.212 A 
ATOM     33  F   UNL     1      10.497   1.523  -1.817  1.00  0.00    -0.185 F 
ENDBRANCH  24  27
ENDBRANCH  22  23
ENDBRANCH  21  22
ENDBRANCH  20  21
ENDBRANCH  19  20
ENDBRANCH   1  19
BRANCH   1  34
ATOM     34  C   UNL     1      -1.022  -2.030   3.043  1.00  0.00     0.326 C 
ATOM     35  O   UNL     1      -0.880  -1.321   4.076  1.00  0.00    -0.250 OA
BRANCH  34  36
ATOM     36  O   UNL     1      -1.156  -3.411   3.165  1.00  0.00    -0.480 OA
ATOM     37  H   UNL     1      -1.147  -3.855   4.076  1.00  0.00     0.296 HD
ENDBRANCH  34  36
ENDBRANCH   1  34
TORSDOF 16
