REMARK SMILES CCCC(=O)O[C@]1(C(=O)CO)CC[C@H]2[C@@H]3CCC4=CC(=O)CC[C@]4(C)[C@H]3[C@@H](O)C[C@@]21C
REMARK SMILES IDX 14 1 13 2 12 3 7 4 30 5 31 6 29 7 27 8 26 9 15 10 16 11
REMARK SMILES IDX 17 12 18 13 19 14 20 15 21 16 22 17 23 18 24 19 25 20 6 21
REMARK SMILES IDX 4 22 5 23 3 24 2 25 1 26 8 27 9 28 10 29 11 30 28 32
REMARK H PARENT 11 31 28 33
REMARK Flexibility Score: inf
ROOT
ATOM      1  C   UNL     1       0.145  -1.205  -0.256  1.00  0.00     0.003 C 
ATOM      2  C   UNL     1       0.760  -2.497  -0.768  1.00  0.00     0.009 C 
ATOM      3  C   UNL     1       2.206  -2.452  -0.237  1.00  0.00     0.058 C 
ATOM      4  C   UNL     1       2.342  -1.156   0.633  1.00  0.00     0.178 C 
ATOM      5  C   UNL     1       0.854  -0.936   1.085  1.00  0.00     0.020 C 
ATOM      6  C   UNL     1       0.491  -1.994   2.198  1.00  0.00     0.016 C 
ATOM      7  C   UNL     1       0.431   0.466   1.637  1.00  0.00     0.043 C 
ATOM      8  C   UNL     1      -0.564   1.301   0.768  1.00  0.00     0.119 C 
ATOM      9  C   UNL     1      -1.690   0.488  -0.024  1.00  0.00     0.031 C 
ATOM     10  C   UNL     1      -1.374  -1.041  -0.128  1.00  0.00    -0.000 C 
ATOM     11  C   UNL     1      -2.157  -1.649  -1.297  1.00  0.00     0.009 C 
ATOM     12  C   UNL     1      -3.652  -1.557  -1.007  1.00  0.00     0.032 C 
ATOM     13  C   UNL     1      -4.082  -0.140  -0.664  1.00  0.00    -0.060 C 
ATOM     14  C   UNL     1      -5.304   0.248  -1.083  1.00  0.00     0.047 C 
ATOM     15  C   UNL     1      -5.854   1.573  -0.786  1.00  0.00     0.155 C 
ATOM     16  O   UNL     1      -6.998   1.889  -1.216  1.00  0.00    -0.295 OA
ATOM     17  C   UNL     1      -5.096   2.540   0.061  1.00  0.00     0.081 C 
ATOM     18  C   UNL     1      -3.591   2.249   0.028  1.00  0.00     0.020 C 
ATOM     19  C   UNL     1      -3.226   0.742   0.286  1.00  0.00    -0.005 C 
ATOM     20  C   UNL     1      -3.563   0.360   1.750  1.00  0.00     0.016 C 
ENDROOT
BRANCH   4  21
ATOM     21  O   UNL     1       2.770  -0.139  -0.307  1.00  0.00    -0.450 OA
BRANCH  21  22
ATOM     22  C   UNL     1       3.177   1.194  -0.103  1.00  0.00     0.306 C 
ATOM     23  O   UNL     1       3.521   1.633   1.028  1.00  0.00    -0.252 OA
BRANCH  22  24
ATOM     24  C   UNL     1       3.280   2.093  -1.293  1.00  0.00     0.122 C 
BRANCH  24  25
ATOM     25  C   UNL     1       4.576   1.809  -2.056  1.00  0.00     0.008 C 
ATOM     26  C   UNL     1       4.649   2.637  -3.333  1.00  0.00     0.004 C 
ENDBRANCH  24  25
ENDBRANCH  22  24
ENDBRANCH  21  22
ENDBRANCH   4  21
BRANCH   4  27
ATOM     27  C   UNL     1       3.341  -1.312   1.798  1.00  0.00     0.202 C 
ATOM     28  O   UNL     1       3.514  -0.376   2.572  1.00  0.00    -0.293 OA
BRANCH  27  29
ATOM     29  C   UNL     1       4.105  -2.589   2.085  1.00  0.00     0.236 C 
BRANCH  29  30
ATOM     30  O   UNL     1       4.901  -2.960   0.988  1.00  0.00    -0.388 OA
ATOM     31  H   UNL     1       5.618  -2.280   0.889  1.00  0.00     0.211 HD
ENDBRANCH  29  30
ENDBRANCH  27  29
ENDBRANCH   4  27
BRANCH   8  32
ATOM     32  O   UNL     1      -1.108   2.331   1.549  1.00  0.00    -0.393 OA
ATOM     33  H   UNL     1      -0.368   2.776   2.040  1.00  0.00     0.210 HD
ENDBRANCH   8  32
TORSDOF 8
