REMARK SMILES C[C@]12CCC(=O)C=C1CC[C@@H]1[C@@H]2[C@@H](O)C[C@@]2(C)[C@H]1CC[C@]2(O)C(=O)COC(=O)CCC1CCCC1
REMARK SMILES IDX 26 1 25 2 23 3 24 4 21 5 18 6 19 7 16 8 11 9 20 10 17 11
REMARK SMILES IDX 15 12 12 13 10 14 13 15 2 16 9 17 8 18 3 19 1 20 7 21 4 22
REMARK SMILES IDX 5 23 6 24 22 25 14 27 27 29 28 30 29 31 30 32 31 33 32 34
REMARK SMILES IDX 35 35 33 36 34 37
REMARK H PARENT 22 26 14 28
REMARK Flexibility Score: inf
ROOT
ATOM      1  O   UNL     1       3.289  -0.633  -0.151  1.00  0.00    -0.458 OA
ENDROOT
BRANCH   1   2
ATOM      2  C   UNL     1       2.749  -1.936   0.051  1.00  0.00     0.311 C 
BRANCH   2   3
ATOM      3  C   UNL     1       1.301  -1.962  -0.361  1.00  0.00     0.202 C 
ATOM      4  O   UNL     1       1.017  -2.429  -1.456  1.00  0.00    -0.293 OA
BRANCH   3   5
ATOM      5  C   UNL     1       0.175  -1.551   0.595  1.00  0.00     0.132 C 
ATOM      6  C   UNL     1      -1.730  -0.198   1.098  1.00  0.00     0.002 C 
ATOM      7  C   UNL     1      -0.598   0.436   1.891  1.00  0.00     0.008 C 
ATOM      8  C   UNL     1      -1.035  -0.842  -0.113  1.00  0.00     0.009 C 
ATOM      9  C   UNL     1      -2.960   0.671   0.737  1.00  0.00    -0.000 C 
ATOM     10  C   UNL     1       0.606  -0.495   1.663  1.00  0.00     0.044 C 
ATOM     11  C   UNL     1      -0.486   0.204  -1.144  1.00  0.00     0.015 C 
ATOM     12  C   UNL     1      -2.056  -1.801  -0.787  1.00  0.00     0.042 C 
ATOM     13  C   UNL     1      -4.020  -0.234   0.026  1.00  0.00     0.031 C 
ATOM     14  C   UNL     1      -3.575   1.272   2.016  1.00  0.00     0.009 C 
ATOM     15  C   UNL     1      -3.424  -1.138  -1.126  1.00  0.00     0.119 C 
ATOM     16  C   UNL     1      -5.365   0.528  -0.320  1.00  0.00    -0.005 C 
ATOM     17  C   UNL     1      -4.821   2.100   1.714  1.00  0.00     0.032 C 
ATOM     18  C   UNL     1      -5.831   1.305   0.920  1.00  0.00    -0.060 C 
ATOM     19  C   UNL     1      -6.451  -0.522  -0.717  1.00  0.00     0.020 C 
ATOM     20  C   UNL     1      -5.200   1.565  -1.465  1.00  0.00     0.016 C 
ATOM     21  C   UNL     1      -7.137   1.512   1.171  1.00  0.00     0.047 C 
ATOM     22  C   UNL     1      -7.854   0.076  -0.848  1.00  0.00     0.081 C 
ATOM     23  C   UNL     1      -8.197   0.916   0.341  1.00  0.00     0.155 C 
ATOM     24  O   UNL     1      -9.413   1.174   0.594  1.00  0.00    -0.295 OA
BRANCH   5  25
ATOM     25  O   UNL     1      -0.283  -2.711   1.261  1.00  0.00    -0.381 OA
ATOM     26  H   UNL     1       0.497  -3.127   1.722  1.00  0.00     0.212 HD
ENDBRANCH   5  25
BRANCH  15  27
ATOM     27  O   UNL     1      -3.373  -0.517  -2.382  1.00  0.00    -0.393 OA
ATOM     28  H   UNL     1      -2.889   0.336  -2.288  1.00  0.00     0.210 HD
ENDBRANCH  15  27
ENDBRANCH   3   5
ENDBRANCH   2   3
ENDBRANCH   1   2
BRANCH   1  29
ATOM     29  C   UNL     1       4.478  -0.207   0.451  1.00  0.00     0.306 C 
ATOM     30  O   UNL     1       5.161  -1.006   1.148  1.00  0.00    -0.252 OA
BRANCH  29  31
ATOM     31  C   UNL     1       4.933   1.212   0.271  1.00  0.00     0.123 C 
BRANCH  31  32
ATOM     32  C   UNL     1       5.955   1.397  -0.867  1.00  0.00     0.015 C 
BRANCH  32  33
ATOM     33  C   UNL     1       7.364   0.757  -0.701  1.00  0.00    -0.011 C 
ATOM     34  C   UNL     1       7.959   0.760   0.707  1.00  0.00     0.003 C 
ATOM     35  C   UNL     1       7.455  -0.689  -1.188  1.00  0.00     0.003 C 
ATOM     36  C   UNL     1       9.002  -0.341   0.697  1.00  0.00     0.000 C 
ATOM     37  C   UNL     1       8.584  -1.332  -0.393  1.00  0.00     0.000 C 
ENDBRANCH  32  33
ENDBRANCH  31  32
ENDBRANCH  29  31
ENDBRANCH   1  29
TORSDOF 9
