REMARK SMILES O=C1CN=C(c2ccccc2)c2c(sc3c2CCCC3)N1
REMARK SMILES IDX 12 1 13 2 14 3 15 4 16 5 17 6 18 7 19 8 20 9 21 10 1 11 2 12
REMARK SMILES IDX 5 15 4 16 6 17 7 18 11 19 8 20 10 21 9 22 3 23
REMARK H PARENT 21 14
REMARK Flexibility Score: 90.00
ROOT
ATOM      1  C   UNL     1      -0.071   1.070   0.332  1.00  0.00     0.039 A 
ATOM      2  C   UNL     1       0.147   2.452   0.270  1.00  0.00     0.105 A 
ATOM      3  S   UNL     1       1.791   2.771   0.130  1.00  0.00    -0.122 S 
ATOM      4  C   UNL     1       2.266   1.163   0.211  1.00  0.00     0.011 A 
ATOM      5  C   UNL     1       1.143   0.342   0.303  1.00  0.00    -0.022 A 
ATOM      6  C   UNL     1       1.288  -1.139   0.574  1.00  0.00     0.037 C 
ATOM      7  C   UNL     1       2.677  -1.659   0.166  1.00  0.00     0.005 C 
ATOM      8  C   UNL     1       3.794  -0.749   0.701  1.00  0.00     0.006 C 
ATOM      9  C   UNL     1       3.677   0.667   0.122  1.00  0.00     0.047 C 
ENDROOT
BRANCH   2  10
ATOM     10  N   UNL     1      -0.850   3.475   0.360  1.00  0.00    -0.316 N 
ATOM     11  O   UNL     1      -2.877   4.265   1.191  1.00  0.00    -0.273 OA
ATOM     12  C   UNL     1      -2.030   3.333   1.161  1.00  0.00     0.246 CG0
ATOM     13  G   UNL     1      -2.259   2.097   1.977  1.00  0.00     0.000 G0
ATOM     14  H   UNL     1      -0.634   4.415  -0.042  1.00  0.00     0.170 HD
ENDBRANCH   2  10
BRANCH   1  15
ATOM     15  C   UNL     1      -1.430   0.455   0.351  1.00  0.00     0.076 C 
ATOM     16  N   UNL     1      -2.383   0.943   1.094  1.00  0.00    -0.274 NA
BRANCH  15  17
ATOM     17  C   UNL     1      -1.766  -0.660  -0.566  1.00  0.00     0.000 A 
ATOM     18  C   UNL     1      -2.696  -1.643  -0.178  1.00  0.00     0.010 A 
ATOM     19  C   UNL     1      -1.186  -0.737  -1.846  1.00  0.00     0.010 A 
ATOM     20  C   UNL     1      -3.019  -2.691  -1.045  1.00  0.00     0.001 A 
ATOM     21  C   UNL     1      -1.513  -1.787  -2.709  1.00  0.00     0.001 A 
ATOM     22  C   UNL     1      -2.427  -2.764  -2.308  1.00  0.00     0.000 A 
ENDBRANCH  15  17
BRANCH  16  23
ATOM     23  C   UNL     1      -2.259   2.097   1.977  1.00  0.00     0.243 CG0
ATOM     24  G   UNL     1      -2.030   3.333   1.161  1.00  0.00     0.000 G0
ENDBRANCH  16  23
ENDBRANCH   1  15
TORSDOF 1
