REMARK SMILES COc1ccc(CN2CCN(C(c3ccc(F)cc3)c3ccc(F)cc3)CC2)c(OC)c1OC
REMARK SMILES IDX 8 1 9 2 10 3 11 4 27 5 28 6 7 7 6 8 3 9 4 10 32 11 5 12
REMARK SMILES IDX 29 13 2 14 1 15 33 16 34 17 30 18 31 19 12 20 13 21 14 22
REMARK SMILES IDX 19 23 15 24 18 25 16 26 17 27 20 28 21 29 26 30 22 31 25 32
REMARK SMILES IDX 23 33 24 34
REMARK H PARENT
REMARK Flexibility Score: inf
ROOT
ATOM      1  N   UNL     1       0.765  -0.349  -1.041  1.00  0.00    -0.296 NA
ATOM      2  C   UNL     1      -0.214  -0.271  -2.146  1.00  0.00     0.100 C 
ATOM      3  C   UNL     1      -1.542   0.318  -1.660  1.00  0.00     0.101 C 
ATOM      4  N   UNL     1      -2.200  -0.553  -0.648  1.00  0.00    -0.290 NA
ATOM      5  C   UNL     1      -1.218  -1.365   0.127  1.00  0.00     0.101 C 
ATOM      6  C   UNL     1       0.145  -0.666   0.271  1.00  0.00     0.100 C 
ENDROOT
BRANCH   1   7
ATOM      7  C   UNL     1       1.859  -1.279  -1.386  1.00  0.00     0.124 C 
BRANCH   7   8
ATOM      8  C   UNL     1       3.083  -1.010  -0.539  1.00  0.00     0.012 A 
ATOM      9  C   UNL     1       5.351  -0.556   1.067  1.00  0.00     0.164 A 
ATOM     10  C   UNL     1       4.689  -1.794   1.100  1.00  0.00     0.051 A 
ATOM     11  C   UNL     1       4.891   0.456   0.202  1.00  0.00     0.203 A 
ATOM     12  C   UNL     1       3.573  -2.018   0.301  1.00  0.00     0.013 A 
ATOM     13  C   UNL     1       3.732   0.242  -0.592  1.00  0.00     0.169 A 
BRANCH   9  14
ATOM     14  O   UNL     1       6.456  -0.290   1.892  1.00  0.00    -0.493 OA
ATOM     15  C   UNL     1       7.025  -1.217   2.810  1.00  0.00     0.278 C 
ENDBRANCH   9  14
BRANCH  11  16
ATOM     16  O   UNL     1       5.575   1.675   0.152  1.00  0.00    -0.490 OA
ATOM     17  C   UNL     1       6.901   1.782  -0.358  1.00  0.00     0.278 C 
ENDBRANCH  11  16
BRANCH  13  18
ATOM     18  O   UNL     1       3.188   1.219  -1.449  1.00  0.00    -0.492 OA
ATOM     19  C   UNL     1       3.586   2.582  -1.543  1.00  0.00     0.278 C 
ENDBRANCH  13  18
ENDBRANCH   7   8
ENDBRANCH   1   7
BRANCH   4  20
ATOM     20  C   UNL     1      -3.113   0.224   0.239  1.00  0.00     0.117 C 
BRANCH  20  21
ATOM     21  C   UNL     1      -3.956  -0.677   1.128  1.00  0.00    -0.026 A 
ATOM     22  C   UNL     1      -4.317  -0.240   2.416  1.00  0.00     0.009 A 
ATOM     23  C   UNL     1      -4.443  -1.916   0.668  1.00  0.00     0.009 A 
ATOM     24  C   UNL     1      -5.123  -1.036   3.235  1.00  0.00     0.039 A 
ATOM     25  C   UNL     1      -5.249  -2.710   1.492  1.00  0.00     0.039 A 
ATOM     26  C   UNL     1      -5.588  -2.270   2.774  1.00  0.00     0.123 A 
ATOM     27  F   UNL     1      -6.379  -3.035   3.565  1.00  0.00    -0.207 F 
ENDBRANCH  20  21
BRANCH  20  28
ATOM     28  C   UNL     1      -4.062   1.114  -0.550  1.00  0.00    -0.026 A 
ATOM     29  C   UNL     1      -4.167   2.482  -0.241  1.00  0.00     0.009 A 
ATOM     30  C   UNL     1      -4.870   0.583  -1.574  1.00  0.00     0.009 A 
ATOM     31  C   UNL     1      -5.050   3.302  -0.949  1.00  0.00     0.039 A 
ATOM     32  C   UNL     1      -5.754   1.406  -2.276  1.00  0.00     0.039 A 
ATOM     33  C   UNL     1      -5.844   2.765  -1.965  1.00  0.00     0.123 A 
ATOM     34  F   UNL     1      -6.704   3.562  -2.648  1.00  0.00    -0.207 F 
ENDBRANCH  20  28
ENDBRANCH   4  20
TORSDOF 8
