REMARK SMILES COc1cc(/C=C/C(=O)CC(=O)/C=C/c2ccc(OS(=O)(=O)O)c(OC)c2)ccc1O
REMARK SMILES IDX 11 1 12 2 10 3 8 4 9 5 7 6 6 7 5 8 3 9 4 10 30 11 29 12
REMARK SMILES IDX 28 13 2 14 1 15 31 16 13 18 14 19 15 20 16 21 27 22 17 23
REMARK SMILES IDX 24 24 18 25 25 26 26 27 19 28 20 29 21 30 22 31 23 32
REMARK H PARENT 31 17 23 33
REMARK Flexibility Score: inf
ROOT
ATOM      1  C   UNL     1      -0.278  -0.356   0.144  1.00  0.00     0.163 C 
ATOM      2  O   UNL     1       0.233   0.477   0.943  1.00  0.00    -0.294 OA
ENDROOT
BRANCH   1   3
ATOM      3  C   UNL     1       0.601  -1.296  -0.636  1.00  0.00     0.160 C 
BRANCH   3   4
ATOM      4  C   UNL     1       1.928  -1.512   0.035  1.00  0.00     0.163 C 
ATOM      5  O   UNL     1       2.029  -2.395   0.931  1.00  0.00    -0.294 OA
BRANCH   4   6
ATOM      6  C   UNL     1       3.086  -0.667  -0.325  1.00  0.00     0.048 C 
ATOM      7  C   UNL     1       4.276  -0.791   0.280  1.00  0.00     0.012 C 
BRANCH   7   8
ATOM      8  C   UNL     1       5.468   0.027  -0.061  1.00  0.00    -0.022 A 
ATOM      9  C   UNL     1       7.900   0.297   0.030  1.00  0.00     0.161 A 
ATOM     10  C   UNL     1       6.735  -0.440   0.325  1.00  0.00     0.058 A 
ATOM     11  C   UNL     1       7.783   1.520  -0.653  1.00  0.00     0.157 A 
ATOM     12  C   UNL     1       6.524   1.995  -1.025  1.00  0.00     0.051 A 
ATOM     13  C   UNL     1       5.373   1.263  -0.729  1.00  0.00     0.012 A 
BRANCH   9  14
ATOM     14  O   UNL     1       9.178  -0.154   0.397  1.00  0.00    -0.493 OA
ATOM     15  C   UNL     1       9.438  -1.366   1.098  1.00  0.00     0.278 C 
ENDBRANCH   9  14
BRANCH  11  16
ATOM     16  O   UNL     1       8.909   2.282  -0.967  1.00  0.00    -0.504 OA
ATOM     17  H   UNL     1       9.846   1.990  -0.715  1.00  0.00     0.293 HD
ENDBRANCH  11  16
ENDBRANCH   7   8
ENDBRANCH   4   6
ENDBRANCH   3   4
ENDBRANCH   1   3
BRANCH   1  18
ATOM     18  C   UNL     1      -1.735  -0.365  -0.093  1.00  0.00     0.048 C 
ATOM     19  C   UNL     1      -2.580   0.392   0.624  1.00  0.00     0.012 C 
BRANCH  19  20
ATOM     20  C   UNL     1      -4.051   0.449   0.412  1.00  0.00    -0.022 A 
ATOM     21  C   UNL     1      -4.777   1.444   1.083  1.00  0.00     0.012 A 
ATOM     22  C   UNL     1      -4.750  -0.454  -0.415  1.00  0.00     0.058 A 
ATOM     23  C   UNL     1      -6.159   1.555   0.924  1.00  0.00     0.053 A 
ATOM     24  C   UNL     1      -6.144  -0.341  -0.589  1.00  0.00     0.163 A 
ATOM     25  C   UNL     1      -6.851   0.667   0.082  1.00  0.00     0.186 A 
BRANCH  24  26
ATOM     26  O   UNL     1      -6.864  -1.213  -1.423  1.00  0.00    -0.493 OA
ATOM     27  C   UNL     1      -6.281  -2.253  -2.202  1.00  0.00     0.278 C 
ENDBRANCH  24  26
BRANCH  25  28
ATOM     28  O   UNL     1      -8.238   0.749  -0.117  1.00  0.00    -0.358 OA
BRANCH  28  29
ATOM     29  S   UNL     1      -9.269   1.886   0.642  1.00  0.00     0.446 S 
ATOM     30  O   UNL     1     -10.686   1.633   0.214  1.00  0.00    -0.158 OA
ATOM     31  O   UNL     1      -8.871   3.277   0.234  1.00  0.00    -0.158 OA
BRANCH  29  32
ATOM     32  O   UNL     1      -9.158   1.736   2.312  1.00  0.00    -0.254 OA
ATOM     33  H   UNL     1      -9.166   0.760   2.477  1.00  0.00     0.237 HD
ENDBRANCH  29  32
ENDBRANCH  28  29
ENDBRANCH  25  28
ENDBRANCH  19  20
ENDBRANCH   1  18
TORSDOF 12
