REMARK SMILES C=CC(=O)N1C[C@H](Nc2ncnc3[nH]ccc23)CC[C@@H]1C
REMARK SMILES IDX 21 1 20 2 19 3 18 4 7 5 6 6 5 7 3 8 4 9 2 10 1 11 8 12 9 14
REMARK SMILES IDX 10 15 17 16 11 17 13 18 16 19 12 20 14 21 15 22
REMARK H PARENT 8 13 14 23
REMARK Flexibility Score: inf
ROOT
ATOM      1  C   UNL     1      -2.959   2.598   0.163  1.00  0.00     0.031 C 
ATOM      2  C   UNL     1      -2.538   1.276  -0.499  1.00  0.00     0.082 C 
ATOM      3  C   UNL     1      -1.322   1.463  -1.418  1.00  0.00     0.027 C 
ATOM      4  C   UNL     1      -0.968   0.133  -2.104  1.00  0.00     0.029 C 
ATOM      5  C   UNL     1      -0.746  -1.007  -1.084  1.00  0.00     0.100 C 
ATOM      6  C   UNL     1      -1.952  -1.119  -0.127  1.00  0.00     0.144 C 
ATOM      7  N   UNL     1      -2.253   0.193   0.461  1.00  0.00    -0.334 N 
ENDROOT
BRANCH   7   8
ATOM      8  C   UNL     1      -1.907   0.432   1.839  1.00  0.00     0.246 C 
ATOM      9  O   UNL     1      -1.112   1.365   2.137  1.00  0.00    -0.270 OA
BRANCH   8  10
ATOM     10  C   UNL     1      -2.463  -0.435   2.896  1.00  0.00     0.063 C 
ATOM     11  C   UNL     1      -2.136  -0.299   4.179  1.00  0.00     0.014 C 
ENDBRANCH   8  10
ENDBRANCH   7   8
BRANCH   5  12
ATOM     12  N   UNL     1       0.497  -0.791  -0.333  1.00  0.00    -0.365 N 
ATOM     13  H   UNL     1       0.444  -0.526   0.676  1.00  0.00     0.162 HD
BRANCH  12  14
ATOM     14  C   UNL     1       1.793  -0.987  -0.919  1.00  0.00     0.139 A 
ATOM     15  N   UNL     1       1.927  -1.486  -2.185  1.00  0.00    -0.219 NA
ATOM     16  C   UNL     1       2.962  -0.683  -0.222  1.00  0.00     0.061 A 
ATOM     17  C   UNL     1       3.157  -1.681  -2.755  1.00  0.00     0.226 A 
ATOM     18  C   UNL     1       4.174  -0.885  -0.809  1.00  0.00     0.142 A 
ATOM     19  C   UNL     1       3.199  -0.172   1.037  1.00  0.00     0.033 A 
ATOM     20  N   UNL     1       4.296  -1.378  -2.064  1.00  0.00    -0.218 NA
ATOM     21  N   UNL     1       5.180  -0.532   0.005  1.00  0.00    -0.346 N 
ATOM     22  C   UNL     1       4.587  -0.094   1.140  1.00  0.00     0.085 A 
ATOM     23  H   UNL     1       6.204  -0.583  -0.193  1.00  0.00     0.167 HD
ENDBRANCH  12  14
ENDBRANCH   5  12
TORSDOF 4
