REMARK SMILES C[C@@H]1C[C@H]2[C@@H]3CCC4=CC(=O)C=C[C@]4(C)[C@@]3(Cl)[C@@H](O)C[C@]2(C)[C@@]1(OC(=O)c1ccco1)C(=O)CCl
REMARK SMILES IDX 4 1 3 2 2 3 1 4 23 5 21 6 22 7 20 8 18 9 16 10 17 11 5 12
REMARK SMILES IDX 6 13 7 14 8 15 9 16 10 17 11 18 12 19 13 20 14 21 15 22
REMARK SMILES IDX 24 23 25 24 26 25 27 26 28 27 31 28 29 29 30 30 32 31 33 32
REMARK SMILES IDX 34 33 35 34 19 35
REMARK H PARENT 19 36
REMARK Flexibility Score: inf
ROOT
ATOM      1  C   UNL     1      -0.143   0.834  -0.734  1.00  0.00     0.005 C 
ATOM      2  C   UNL     1       0.236   2.007  -1.625  1.00  0.00     0.012 C 
ATOM      3  C   UNL     1       1.755   1.823  -1.877  1.00  0.00     0.039 C 
ATOM      4  C   UNL     1       2.538   3.028  -1.321  1.00  0.00     0.012 C 
ATOM      5  C   UNL     1       2.155   0.425  -1.265  1.00  0.00     0.180 C 
ATOM      6  C   UNL     1       0.756  -0.314  -1.227  1.00  0.00     0.021 C 
ATOM      7  C   UNL     1       0.354  -0.806  -2.668  1.00  0.00     0.016 C 
ATOM      8  C   UNL     1       0.618  -1.487  -0.218  1.00  0.00     0.045 C 
ATOM      9  C   UNL     1      -0.858  -1.942  -0.017  1.00  0.00     0.137 C 
ATOM     10  C   UNL     1      -1.813  -0.756   0.394  1.00  0.00     0.086 C 
ATOM     11  Cl  UNL     1      -1.264  -0.242   2.051  1.00  0.00    -0.115 Cl
ATOM     12  C   UNL     1      -1.644   0.463  -0.597  1.00  0.00     0.018 C 
ATOM     13  C   UNL     1      -2.480   1.682  -0.142  1.00  0.00     0.010 C 
ATOM     14  C   UNL     1      -3.960   1.327   0.011  1.00  0.00     0.032 C 
ATOM     15  C   UNL     1      -4.125   0.118   0.901  1.00  0.00    -0.055 C 
ATOM     16  C   UNL     1      -4.956   0.182   1.953  1.00  0.00     0.052 C 
ATOM     17  C   UNL     1      -5.111  -0.956   2.860  1.00  0.00     0.178 C 
ATOM     18  O   UNL     1      -5.908  -0.887   3.832  1.00  0.00    -0.290 OA
ATOM     19  C   UNL     1      -4.326  -2.168   2.638  1.00  0.00     0.048 C 
ATOM     20  C   UNL     1      -3.501  -2.259   1.595  1.00  0.00    -0.010 C 
ATOM     21  C   UNL     1      -3.347  -1.161   0.539  1.00  0.00     0.029 C 
ATOM     22  C   UNL     1      -3.990  -1.730  -0.754  1.00  0.00     0.022 C 
ENDROOT
BRANCH   5  23
ATOM     23  O   UNL     1       2.645   0.649   0.073  1.00  0.00    -0.444 OA
BRANCH  23  24
ATOM     24  C   UNL     1       3.387  -0.243   0.863  1.00  0.00     0.375 C 
ATOM     25  O   UNL     1       3.700  -1.389   0.439  1.00  0.00    -0.242 OA
BRANCH  24  26
ATOM     26  C   UNL     1       3.784   0.169   2.211  1.00  0.00     0.211 A 
ATOM     27  C   UNL     1       4.505  -0.586   3.116  1.00  0.00     0.058 A 
ATOM     28  O   UNL     1       3.488   1.336   2.734  1.00  0.00    -0.457 OA
ATOM     29  C   UNL     1       4.633   0.205   4.237  1.00  0.00     0.043 A 
ATOM     30  C   UNL     1       3.983   1.388   3.949  1.00  0.00     0.196 A 
ENDBRANCH  24  26
ENDBRANCH  23  24
ENDBRANCH   5  23
BRANCH   5  31
ATOM     31  C   UNL     1       3.255  -0.254  -2.102  1.00  0.00     0.191 C 
ATOM     32  O   UNL     1       3.086  -1.369  -2.572  1.00  0.00    -0.294 OA
BRANCH  31  33
ATOM     33  C   UNL     1       4.614   0.367  -2.265  1.00  0.00     0.189 C 
ATOM     34  Cl  UNL     1       4.743   1.139  -3.864  1.00  0.00    -0.118 Cl
ENDBRANCH  31  33
ENDBRANCH   5  31
BRANCH   9  35
ATOM     35  O   UNL     1      -1.315  -2.595  -1.171  1.00  0.00    -0.391 OA
ATOM     36  H   UNL     1      -0.871  -3.483  -1.201  1.00  0.00     0.211 HD
ENDBRANCH   9  35
TORSDOF 6
