REMARK SMILES CC(C)Oc1ccc(-c2nn([C@@H](C)c3oc4ccc(F)cc4c(=O)c3-c3cccc(F)c3)c3ncnc(N)c23)cc1F
REMARK SMILES IDX 9 1 10 2 11 3 33 4 39 5 37 6 36 7 35 8 34 9 8 10 5 11 41 12
REMARK SMILES IDX 6 13 42 14 40 15 7 16 4 17 2 18 1 19 3 20 12 21 13 22 14 23
REMARK SMILES IDX 25 24 15 25 23 26 16 27 24 28 22 29 17 30 21 31 18 32 19 33
REMARK SMILES IDX 20 34 26 35 27 36 32 37 28 38 30 39 29 40 31 41 38 42
REMARK H PARENT 38 43 38 44
REMARK Flexibility Score: inf
ROOT
ATOM      1  C   UNL     1       1.004   0.062  -1.060  1.00  0.00     0.106 A 
ATOM      2  N   UNL     1       0.234   1.127  -0.720  1.00  0.00    -0.169 NA
ATOM      3  N   UNL     1      -0.929   1.020  -1.354  1.00  0.00    -0.236 N 
ATOM      4  C   UNL     1      -0.902  -0.102  -2.096  1.00  0.00     0.164 A 
ATOM      5  C   UNL     1       0.283  -0.752  -1.930  1.00  0.00     0.089 A 
ATOM      6  C   UNL     1       0.484  -1.987  -2.557  1.00  0.00     0.138 A 
ATOM      7  N   UNL     1      -0.509  -2.450  -3.372  1.00  0.00    -0.219 NA
ATOM      8  C   UNL     1      -1.675  -1.754  -3.554  1.00  0.00     0.226 A 
ATOM      9  N   UNL     1      -1.886  -0.577  -2.897  1.00  0.00    -0.217 NA
ENDROOT
BRANCH   1  10
ATOM     10  C   UNL     1       2.399  -0.091  -0.616  1.00  0.00     0.006 A 
ATOM     11  C   UNL     1       5.063  -0.405   0.245  1.00  0.00     0.155 A 
ATOM     12  C   UNL     1       4.743  -0.484  -1.118  1.00  0.00     0.165 A 
ATOM     13  C   UNL     1       4.041  -0.118   1.174  1.00  0.00     0.050 A 
ATOM     14  F   UNL     1       5.714  -0.737  -2.032  1.00  0.00    -0.203 F 
ATOM     15  C   UNL     1       3.423  -0.320  -1.549  1.00  0.00     0.053 A 
ATOM     16  C   UNL     1       2.721   0.042   0.742  1.00  0.00     0.014 A 
BRANCH  11  17
ATOM     17  O   UNL     1       6.399  -0.616   0.625  1.00  0.00    -0.488 OA
BRANCH  17  18
ATOM     18  C   UNL     1       6.878  -0.748   1.966  1.00  0.00     0.167 C 
ATOM     19  C   UNL     1       8.402  -0.652   1.950  1.00  0.00     0.052 C 
ATOM     20  C   UNL     1       6.439  -2.091   2.561  1.00  0.00     0.052 C 
ENDBRANCH  17  18
ENDBRANCH  11  17
ENDBRANCH   1  10
BRANCH   3  21
ATOM     21  C   UNL     1      -2.029   1.978  -1.209  1.00  0.00     0.174 C 
ATOM     22  C   UNL     1      -2.267   2.724  -2.527  1.00  0.00     0.042 C 
BRANCH  21  23
ATOM     23  C   UNL     1      -3.274   1.263  -0.719  1.00  0.00     0.140 A 
ATOM     24  C   UNL     1      -3.464   0.961   0.650  1.00  0.00     0.071 A 
ATOM     25  O   UNL     1      -4.172   0.857  -1.616  1.00  0.00    -0.458 OA
ATOM     26  C   UNL     1      -4.603   0.232   1.029  1.00  0.00     0.200 A 
ATOM     27  C   UNL     1      -5.261   0.169  -1.297  1.00  0.00     0.138 A 
ATOM     28  O   UNL     1      -4.796  -0.052   2.245  1.00  0.00    -0.288 OA
ATOM     29  C   UNL     1      -5.521  -0.176   0.048  1.00  0.00     0.068 A 
ATOM     30  C   UNL     1      -6.150  -0.223  -2.304  1.00  0.00     0.051 A 
ATOM     31  C   UNL     1      -6.677  -0.914   0.361  1.00  0.00     0.055 A 
ATOM     32  C   UNL     1      -7.294  -0.959  -1.984  1.00  0.00     0.043 A 
ATOM     33  C   UNL     1      -7.558  -1.304  -0.655  1.00  0.00     0.124 A 
ATOM     34  F   UNL     1      -8.668  -2.020  -0.350  1.00  0.00    -0.207 F 
BRANCH  24  35
ATOM     35  C   UNL     1      -2.488   1.385   1.673  1.00  0.00    -0.008 A 
ATOM     36  C   UNL     1      -1.476   0.508   2.094  1.00  0.00     0.009 A 
ATOM     37  C   UNL     1      -2.568   2.674   2.225  1.00  0.00     0.048 A 
ATOM     38  C   UNL     1      -0.547   0.922   3.055  1.00  0.00     0.004 A 
ATOM     39  C   UNL     1      -1.635   3.085   3.183  1.00  0.00     0.123 A 
ATOM     40  C   UNL     1      -0.625   2.210   3.596  1.00  0.00     0.039 A 
ATOM     41  F   UNL     1      -1.707   4.334   3.710  1.00  0.00    -0.207 F 
ENDBRANCH  24  35
ENDBRANCH  21  23
ENDBRANCH   3  21
BRANCH   6  42
ATOM     42  N   UNL     1       1.626  -2.808  -2.302  1.00  0.00    -0.383 N 
ATOM     43  H   UNL     1       1.761  -3.686  -2.848  1.00  0.00     0.158 HD
ATOM     44  H   UNL     1       2.225  -2.665  -1.461  1.00  0.00     0.158 HD
ENDBRANCH   6  42
TORSDOF 7
