REMARK SMILES C[N+](C)(C)CCO.O=C([O-])c1ccccc1O
REMARK SMILES IDX 5 1 2 2 1 3 3 4 4 5 6 6 7 7
REMARK H PARENT 7 8
REMARK Flexibility Score: inf
ROOT
ATOM      1  C   UNL     1       0.817   0.177  -0.571  1.00  0.00     0.291 C 
ENDROOT
BRANCH   1   2
ATOM      2  N   UNL     1      -0.523   0.288   0.085  1.00  0.00    -0.329 N 
ATOM      3  C   UNL     1      -1.095   1.610  -0.267  1.00  0.00     0.334 C 
ATOM      4  C   UNL     1      -0.408   0.209   1.561  1.00  0.00     0.334 C 
ATOM      5  C   UNL     1      -1.449  -0.764  -0.400  1.00  0.00     0.334 C 
ENDBRANCH   1   2
BRANCH   1   6
ATOM      6  C   UNL     1       1.569  -1.147  -0.316  1.00  0.00     0.217 C 
BRANCH   6   7
ATOM      7  O   UNL     1       2.792  -1.138  -1.000  1.00  0.00    -0.391 OA
ATOM      8  H   UNL     1       3.405  -0.553  -0.482  1.00  0.00     0.210 HD
ENDBRANCH   6   7
ENDBRANCH   1   6
TORSDOF 3
