REMARK SMILES CCC(=O)O[C@]1(C(=O)COC(C)=O)CC[C@H]2[C@@H]3CCC4=CC(=O)CC[C@]4(C)[C@H]3[C@@H](O)C[C@@]21C
REMARK SMILES IDX 16 1 15 2 14 3 6 4 32 5 33 6 31 7 29 8 28 9 17 10 18 11
REMARK SMILES IDX 19 12 20 13 21 14 22 15 23 16 24 17 25 18 26 19 27 20 5 21
REMARK SMILES IDX 3 22 4 23 2 24 1 25 7 26 8 27 9 28 10 29 11 30 12 31 13 32
REMARK SMILES IDX 30 33
REMARK H PARENT 30 34
REMARK Flexibility Score: inf
ROOT
ATOM      1  C   UNL     1      -0.003  -0.865   0.518  1.00  0.00     0.003 C 
ATOM      2  C   UNL     1       0.965  -1.683   1.365  1.00  0.00     0.009 C 
ATOM      3  C   UNL     1       2.353  -1.097   1.041  1.00  0.00     0.058 C 
ATOM      4  C   UNL     1       2.122   0.135   0.106  1.00  0.00     0.179 C 
ATOM      5  C   UNL     1       0.647   0.532   0.438  1.00  0.00     0.020 C 
ATOM      6  C   UNL     1       0.614   1.317   1.796  1.00  0.00     0.016 C 
ATOM      7  C   UNL     1      -0.089   1.356  -0.659  1.00  0.00     0.043 C 
ATOM      8  C   UNL     1      -1.633   1.409  -0.452  1.00  0.00     0.119 C 
ATOM      9  C   UNL     1      -2.240  -0.014  -0.234  1.00  0.00     0.031 C 
ATOM     10  C   UNL     1      -1.502  -0.808   0.897  1.00  0.00    -0.000 C 
ATOM     11  C   UNL     1      -2.131  -2.210   1.151  1.00  0.00     0.009 C 
ATOM     12  C   UNL     1      -3.149  -2.657   0.094  1.00  0.00     0.032 C 
ATOM     13  C   UNL     1      -4.184  -1.591  -0.197  1.00  0.00    -0.060 C 
ATOM     14  C   UNL     1      -5.385  -1.976  -0.663  1.00  0.00     0.047 C 
ATOM     15  C   UNL     1      -6.361  -1.008  -1.186  1.00  0.00     0.155 C 
ATOM     16  O   UNL     1      -7.509  -1.403  -1.518  1.00  0.00    -0.295 OA
ATOM     17  C   UNL     1      -6.013   0.444  -1.322  1.00  0.00     0.081 C 
ATOM     18  C   UNL     1      -4.493   0.667  -1.268  1.00  0.00     0.020 C 
ATOM     19  C   UNL     1      -3.807  -0.107  -0.102  1.00  0.00    -0.005 C 
ATOM     20  C   UNL     1      -4.321   0.446   1.254  1.00  0.00     0.016 C 
ENDROOT
BRANCH   4  21
ATOM     21  O   UNL     1       2.186  -0.301  -1.263  1.00  0.00    -0.450 OA
BRANCH  21  22
ATOM     22  C   UNL     1       3.338  -0.762  -1.917  1.00  0.00     0.306 C 
ATOM     23  O   UNL     1       4.456  -0.779  -1.334  1.00  0.00    -0.252 OA
BRANCH  22  24
ATOM     24  C   UNL     1       3.218  -1.291  -3.309  1.00  0.00     0.119 C 
ATOM     25  C   UNL     1       2.756  -2.744  -3.286  1.00  0.00     0.016 C 
ENDBRANCH  22  24
ENDBRANCH  21  22
ENDBRANCH   4  21
BRANCH   4  26
ATOM     26  C   UNL     1       3.104   1.297   0.292  1.00  0.00     0.214 C 
ATOM     27  O   UNL     1       2.968   2.290  -0.409  1.00  0.00    -0.291 OA
BRANCH  26  28
ATOM     28  C   UNL     1       4.224   1.267   1.300  1.00  0.00     0.312 C 
BRANCH  28  29
ATOM     29  O   UNL     1       5.110   2.365   1.096  1.00  0.00    -0.458 OA
BRANCH  29  30
ATOM     30  C   UNL     1       6.241   2.576   1.889  1.00  0.00     0.303 C 
ATOM     31  C   UNL     1       7.103   3.767   1.636  1.00  0.00     0.139 C 
ATOM     32  O   UNL     1       6.517   1.796   2.841  1.00  0.00    -0.253 OA
ENDBRANCH  29  30
ENDBRANCH  28  29
ENDBRANCH  26  28
ENDBRANCH   4  26
BRANCH   8  33
ATOM     33  O   UNL     1      -1.969   2.266   0.606  1.00  0.00    -0.393 OA
ATOM     34  H   UNL     1      -1.803   3.193   0.292  1.00  0.00     0.210 HD
ENDBRANCH   8  33
TORSDOF 8
