REMARK SMILES O=C(Nc1cnn2ccc(N3CCC[C@@H]3c3cc(F)ccc3F)nc12)N1CC[C@H](O)C1
REMARK SMILES IDX 4 1 25 2 24 3 10 4 9 5 8 6 7 7 6 8 5 9 3 10 2 11 1 12 26 14
REMARK SMILES IDX 29 15 28 16 31 17 27 18 30 19 11 21 12 22 15 23 13 24 14 25
REMARK SMILES IDX 16 26 22 27 17 28 23 29 21 30 18 31 20 32 19 33
REMARK H PARENT 3 13 30 20
REMARK Flexibility Score: inf
ROOT
ATOM      1  C   UNL     1       1.722  -1.441  -0.916  1.00  0.00     0.108 A 
ATOM      2  C   UNL     1       0.473  -1.493  -0.355  1.00  0.00     0.181 A 
ATOM      3  N   UNL     1      -0.263  -0.491   0.184  1.00  0.00    -0.209 NA
ATOM      4  C   UNL     1      -1.516  -0.774   0.653  1.00  0.00     0.133 A 
ATOM      5  C   UNL     1      -2.019  -2.095   0.585  1.00  0.00     0.067 A 
ATOM      6  C   UNL     1      -1.215  -3.097   0.028  1.00  0.00     0.119 A 
ATOM      7  N   UNL     1       0.009  -2.746  -0.434  1.00  0.00    -0.220 N 
ATOM      8  N   UNL     1       0.900  -3.530  -1.016  1.00  0.00    -0.173 NA
ATOM      9  C   UNL     1       1.969  -2.752  -1.324  1.00  0.00     0.164 A 
ENDROOT
BRANCH   1  10
ATOM     10  N   UNL     1       2.591  -0.301  -0.984  1.00  0.00    -0.303 N 
ATOM     11  C   UNL     1       3.825  -0.287  -1.716  1.00  0.00     0.322 C 
ATOM     12  O   UNL     1       3.973  -1.046  -2.712  1.00  0.00    -0.248 OA
ATOM     13  H   UNL     1       2.326   0.541  -0.427  1.00  0.00     0.172 HD
BRANCH  11  14
ATOM     14  N   UNL     1       4.896   0.591  -1.332  1.00  0.00    -0.322 N 
ATOM     15  C   UNL     1       6.308   1.888   0.074  1.00  0.00     0.135 C 
ATOM     16  C   UNL     1       7.028   1.626  -1.254  1.00  0.00     0.055 C 
ATOM     17  C   UNL     1       4.865   1.444  -0.155  1.00  0.00     0.153 C 
ATOM     18  C   UNL     1       6.193   0.588  -1.987  1.00  0.00     0.124 C 
BRANCH  15  19
ATOM     19  O   UNL     1       6.877   1.116   1.100  1.00  0.00    -0.391 OA
ATOM     20  H   UNL     1       7.760   1.523   1.310  1.00  0.00     0.211 HD
ENDBRANCH  15  19
ENDBRANCH  11  14
ENDBRANCH   1  10
BRANCH   4  21
ATOM     21  N   UNL     1      -2.323   0.280   1.192  1.00  0.00    -0.349 N 
ATOM     22  C   UNL     1      -1.856   1.116   2.283  1.00  0.00     0.119 C 
ATOM     23  C   UNL     1      -3.394   0.900   0.427  1.00  0.00     0.117 C 
ATOM     24  C   UNL     1      -2.596   2.442   2.146  1.00  0.00     0.024 C 
ATOM     25  C   UNL     1      -3.741   2.200   1.162  1.00  0.00     0.032 C 
BRANCH  23  26
ATOM     26  C   UNL     1      -4.592  -0.025   0.299  1.00  0.00     0.013 A 
ATOM     27  C   UNL     1      -5.187  -0.616   1.437  1.00  0.00     0.128 A 
ATOM     28  C   UNL     1      -5.124  -0.305  -0.975  1.00  0.00     0.048 A 
ATOM     29  F   UNL     1      -4.703  -0.375   2.682  1.00  0.00    -0.207 F 
ATOM     30  C   UNL     1      -6.288  -1.467   1.288  1.00  0.00     0.042 A 
ATOM     31  C   UNL     1      -6.223  -1.158  -1.113  1.00  0.00     0.123 A 
ATOM     32  C   UNL     1      -6.804  -1.739   0.018  1.00  0.00     0.042 A 
ATOM     33  F   UNL     1      -6.726  -1.421  -2.343  1.00  0.00    -0.207 F 
ENDBRANCH  23  26
ENDBRANCH   4  21
TORSDOF 5
