REMARK SMILES O=C(O)CCC(=O)OC1N=C(c2ccccc2Cl)c2cc(Br)ccc2NC1=O
REMARK SMILES IDX 6 1 7 2 5 3 4 4 2 5 1 6 3 7 8 9 9 10 10 12 11 13 12 14 13 15
REMARK SMILES IDX 17 16 14 17 16 18 18 19 15 20 19 21 20 22 25 23 21 24 24 25
REMARK SMILES IDX 22 26 23 27 26 28 27 29 28 31
REMARK H PARENT 3 8 26 30
REMARK Flexibility Score: 90.00
ROOT
ATOM      1  C   UNL     1       3.012  -0.331  -0.289  1.00  0.00     0.308 C 
ATOM      2  O   UNL     1       3.779  -0.899  -1.113  1.00  0.00    -0.252 OA
ENDROOT
BRANCH   1   3
ATOM      3  C   UNL     1       3.576   0.598   0.738  1.00  0.00     0.134 C 
BRANCH   3   4
ATOM      4  C   UNL     1       3.701  -0.111   2.087  1.00  0.00     0.134 C 
BRANCH   4   5
ATOM      5  C   UNL     1       4.255   0.821   3.118  1.00  0.00     0.303 C 
ATOM      6  O   UNL     1       3.478   1.534   3.807  1.00  0.00    -0.252 OA
BRANCH   5   7
ATOM      7  O   UNL     1       5.632   0.931   3.283  1.00  0.00    -0.481 OA
ATOM      8  H   UNL     1       6.023   1.569   3.965  1.00  0.00     0.296 HD
ENDBRANCH   5   7
ENDBRANCH   4   5
ENDBRANCH   3   4
ENDBRANCH   1   3
BRANCH   1   9
ATOM      9  O   UNL     1       1.637  -0.585  -0.297  1.00  0.00    -0.430 OA
BRANCH   9  10
ATOM     10  C   UNL     1       0.991  -1.402  -1.274  1.00  0.00     0.385 CG0
ATOM     11  G   UNL     1       1.014  -0.748  -2.621  1.00  0.00     0.000 G0
BRANCH  10  12
ATOM     12  N   UNL     1      -0.394  -1.634  -0.887  1.00  0.00    -0.232 NA
ATOM     13  C   UNL     1      -1.285  -0.714  -0.647  1.00  0.00     0.080 C 
BRANCH  13  14
ATOM     14  C   UNL     1      -2.654  -1.142  -0.269  1.00  0.00     0.019 A 
ATOM     15  C   UNL     1      -3.757  -0.526  -0.888  1.00  0.00     0.012 A 
ATOM     16  C   UNL     1      -2.884  -2.152   0.694  1.00  0.00     0.050 A 
ATOM     17  C   UNL     1      -5.060  -0.912  -0.566  1.00  0.00     0.001 A 
ATOM     18  C   UNL     1      -4.196  -2.530   1.009  1.00  0.00     0.021 A 
ATOM     19  Cl  UNL     1      -1.569  -2.920   1.579  1.00  0.00    -0.084 Cl
ATOM     20  C   UNL     1      -5.279  -1.914   0.379  1.00  0.00     0.002 A 
ENDBRANCH  13  14
BRANCH  13  21
ATOM     21  C   UNL     1      -0.966   0.742  -0.731  1.00  0.00     0.025 A 
ATOM     22  C   UNL     1      -1.484   1.595   0.263  1.00  0.00     0.028 A 
ATOM     23  C   UNL     1      -0.204   1.306  -1.790  1.00  0.00     0.050 A 
ATOM     24  C   UNL     1      -1.270   2.974   0.207  1.00  0.00     0.018 A 
ATOM     25  C   UNL     1      -0.020   2.696  -1.841  1.00  0.00     0.028 A 
ATOM     26  Br  UNL     1      -1.982   4.107   1.570  1.00  0.00    -0.051 Br
ATOM     27  C   UNL     1      -0.543   3.524  -0.847  1.00  0.00     0.018 A 
BRANCH  23  28
ATOM     28  N   UNL     1       0.363   0.508  -2.843  1.00  0.00    -0.320 N 
ATOM     29  C   UNL     1       1.014  -0.748  -2.621  1.00  0.00     0.289 CG0
ATOM     30  H   UNL     1       0.484   0.948  -3.784  1.00  0.00     0.170 HD
ATOM     31  O   UNL     1       1.612  -1.314  -3.575  1.00  0.00    -0.268 OA
ATOM     32  G   UNL     1       0.991  -1.402  -1.274  1.00  0.00     0.000 G0
ENDBRANCH  23  28
ENDBRANCH  13  21
ENDBRANCH  10  12
ENDBRANCH   9  10
ENDBRANCH   1   9
TORSDOF 7
