REMARK SMILES COC(=O)/C=C/C(=O)OCCN1C(=O)CCC1=O
REMARK SMILES IDX 7 1 8 2 6 3 5 4 3 5 4 6 2 7 1 8 9 9 10 10 11 11 12 12 13 13
REMARK SMILES IDX 17 14 14 15 15 16 16 17 18 18
REMARK H PARENT
REMARK Flexibility Score: inf
ROOT
ATOM      1  C   UNL     1       1.204   0.149  -0.676  1.00  0.00     0.331 C 
ATOM      2  O   UNL     1       0.649  -0.352  -1.693  1.00  0.00    -0.247 OA
ENDROOT
BRANCH   1   3
ATOM      3  C   UNL     1       2.662   0.055  -0.494  1.00  0.00     0.101 C 
ATOM      4  C   UNL     1       3.457  -0.560  -1.377  1.00  0.00     0.101 C 
BRANCH   4   5
ATOM      5  C   UNL     1       4.912  -0.649  -1.185  1.00  0.00     0.330 C 
ATOM      6  O   UNL     1       5.610  -1.241  -2.052  1.00  0.00    -0.247 OA
BRANCH   5   7
ATOM      7  O   UNL     1       5.516  -0.084  -0.056  1.00  0.00    -0.466 OA
ATOM      8  C   UNL     1       6.918  -0.143   0.175  1.00  0.00     0.282 C 
ENDBRANCH   5   7
ENDBRANCH   4   5
ENDBRANCH   1   3
BRANCH   1   9
ATOM      9  O   UNL     1       0.444   0.809   0.295  1.00  0.00    -0.461 OA
BRANCH   9  10
ATOM     10  C   UNL     1      -0.977   0.915   0.242  1.00  0.00     0.255 C 
BRANCH  10  11
ATOM     11  C   UNL     1      -1.630  -0.409   0.642  1.00  0.00     0.170 C 
BRANCH  11  12
ATOM     12  N   UNL     1      -3.086  -0.284   0.622  1.00  0.00    -0.279 N 
ATOM     13  C   UNL     1      -3.912  -0.347  -0.527  1.00  0.00     0.229 C 
ATOM     14  C   UNL     1      -3.889   0.283   1.642  1.00  0.00     0.229 C 
ATOM     15  O   UNL     1      -3.499  -0.745  -1.649  1.00  0.00    -0.274 OA
ATOM     16  C   UNL     1      -5.306   0.122  -0.276  1.00  0.00     0.110 C 
ATOM     17  C   UNL     1      -5.291   0.552   1.205  1.00  0.00     0.110 C 
ATOM     18  O   UNL     1      -3.454   0.545   2.794  1.00  0.00    -0.274 OA
ENDBRANCH  11  12
ENDBRANCH  10  11
ENDBRANCH   9  10
ENDBRANCH   1   9
TORSDOF 7
