REMARK SMILES N[C@H]1CC[C@@H](c2ccc(Cl)c(Cl)c2)c2ccccc21
REMARK SMILES IDX 2 1 3 2 4 3 5 4 14 5 15 6 16 7 17 8 18 9 19 10 1 11 6 14
REMARK SMILES IDX 13 15 7 16 11 17 8 18 12 19 9 20 10 21
REMARK H PARENT 1 12 1 13
REMARK Flexibility Score: inf
ROOT
ATOM      1  C   UNL     1      -2.164  -1.130   0.285  1.00  0.00     0.081 C 
ATOM      2  C   UNL     1      -0.950  -2.065   0.158  1.00  0.00     0.024 C 
ATOM      3  C   UNL     1       0.094  -1.772   1.233  1.00  0.00     0.015 C 
ATOM      4  C   UNL     1       0.638  -0.340   1.108  1.00  0.00     0.050 C 
ATOM      5  C   UNL     1      -0.474   0.683   0.984  1.00  0.00    -0.036 A 
ATOM      6  C   UNL     1      -0.180   2.029   1.264  1.00  0.00     0.005 A 
ATOM      7  C   UNL     1      -1.167   3.009   1.159  1.00  0.00     0.000 A 
ATOM      8  C   UNL     1      -2.461   2.657   0.782  1.00  0.00     0.000 A 
ATOM      9  C   UNL     1      -2.770   1.326   0.493  1.00  0.00     0.005 A 
ATOM     10  C   UNL     1      -1.780   0.325   0.554  1.00  0.00    -0.027 A 
ENDROOT
BRANCH   1  11
ATOM     11  N   UNL     1      -2.976  -1.267  -0.928  1.00  0.00    -0.324 NA
ATOM     12  H   UNL     1      -2.586  -0.660  -1.687  1.00  0.00     0.119 HD
ATOM     13  H   UNL     1      -3.956  -0.961  -0.733  1.00  0.00     0.119 HD
ENDBRANCH   1  11
BRANCH   4  14
ATOM     14  C   UNL     1       1.652  -0.227  -0.022  1.00  0.00    -0.039 A 
ATOM     15  C   UNL     1       1.267   0.097  -1.339  1.00  0.00     0.026 A 
ATOM     16  C   UNL     1       3.005  -0.505   0.238  1.00  0.00     0.006 A 
ATOM     17  C   UNL     1       2.217   0.164  -2.364  1.00  0.00     0.059 A 
ATOM     18  C   UNL     1       3.953  -0.438  -0.785  1.00  0.00     0.022 A 
ATOM     19  Cl  UNL     1       1.686   0.580  -3.988  1.00  0.00    -0.083 Cl
ATOM     20  C   UNL     1       3.567  -0.102  -2.086  1.00  0.00     0.059 A 
ATOM     21  Cl  UNL     1       4.791  -0.030  -3.346  1.00  0.00    -0.083 Cl
ENDBRANCH   4  14
TORSDOF 2
