REMARK SMILES CC(C)n1c(=O)cc(N[C@@H](C)c2ccccc2)[nH]c1=O
REMARK SMILES IDX 9 1 8 3 4 4 19 5 5 6 20 7 18 8 7 9 6 10 2 12 1 13 3 14 10 15
REMARK SMILES IDX 11 16 12 17 13 18 17 19 14 20 16 21 15 22
REMARK H PARENT 9 2 18 11
REMARK Flexibility Score: inf
ROOT
ATOM      1  N   UNL     1      -1.169  -0.273  -0.338  1.00  0.00    -0.365 N 
ATOM      2  H   UNL     1      -1.690  -0.824  -1.057  1.00  0.00     0.162 HD
ENDROOT
BRANCH   1   3
ATOM      3  C   UNL     1       0.271  -0.263  -0.437  1.00  0.00     0.113 A 
ATOM      4  N   UNL     1       3.042  -0.272  -0.660  1.00  0.00    -0.258 N 
ATOM      5  C   UNL     1       2.415   0.268   0.444  1.00  0.00     0.330 A 
ATOM      6  C   UNL     1       2.268  -0.816  -1.659  1.00  0.00     0.258 A 
ATOM      7  O   UNL     1       3.086   0.774   1.385  1.00  0.00    -0.248 OA
ATOM      8  N   UNL     1       1.056   0.263   0.544  1.00  0.00    -0.293 N 
ATOM      9  C   UNL     1       0.878  -0.821  -1.558  1.00  0.00     0.116 A 
ATOM     10  O   UNL     1       2.793  -1.323  -2.689  1.00  0.00    -0.269 OA
ATOM     11  H   UNL     1       0.632   0.669   1.406  1.00  0.00     0.173 HD
BRANCH   4  12
ATOM     12  C   UNL     1       4.527  -0.280  -0.782  1.00  0.00     0.089 C 
ATOM     13  C   UNL     1       5.183  -1.116   0.326  1.00  0.00     0.031 C 
ATOM     14  C   UNL     1       5.097   1.145  -0.841  1.00  0.00     0.031 C 
ENDBRANCH   4  12
ENDBRANCH   1   3
BRANCH   1  15
ATOM     15  C   UNL     1      -1.942   0.467   0.669  1.00  0.00     0.108 C 
ATOM     16  C   UNL     1      -1.857   1.977   0.411  1.00  0.00     0.036 C 
BRANCH  15  17
ATOM     17  C   UNL     1      -3.391   0.010   0.671  1.00  0.00    -0.026 A 
ATOM     18  C   UNL     1      -4.191   0.137  -0.481  1.00  0.00     0.006 A 
ATOM     19  C   UNL     1      -3.954  -0.556   1.832  1.00  0.00     0.006 A 
ATOM     20  C   UNL     1      -5.523  -0.289  -0.469  1.00  0.00     0.000 A 
ATOM     21  C   UNL     1      -5.286  -0.983   1.838  1.00  0.00     0.000 A 
ATOM     22  C   UNL     1      -6.070  -0.847   0.690  1.00  0.00     0.000 A 
ENDBRANCH  15  17
ENDBRANCH   1  15
TORSDOF 4
