REMARK SMILES CC(=O)OCC(=O)[C@@]1(O)[C@H](C)C[C@H]2[C@@H]3CCC4=CC(=O)C=C[C@]4(C)[C@@]3(F)[C@@H](O)C[C@@]21C
REMARK SMILES IDX 5 1 6 2 7 3 8 4 13 5 12 6 30 7 14 8 10 9 31 10 29 11 25 12
REMARK SMILES IDX 15 13 11 14 27 15 26 16 23 17 16 18 17 19 22 20 24 21 18 22
REMARK SMILES IDX 21 23 19 24 20 25 9 26 28 28 4 30 2 31 1 32 3 33
REMARK H PARENT 9 27 28 29
REMARK Flexibility Score: inf
ROOT
ATOM      1  C   UNL     1       4.379   0.710   1.473  1.00  0.00     0.311 C 
ENDROOT
BRANCH   1   2
ATOM      2  C   UNL     1       3.272   1.214   0.578  1.00  0.00     0.202 C 
ATOM      3  O   UNL     1       3.224   2.415   0.354  1.00  0.00    -0.293 OA
BRANCH   2   4
ATOM      4  C   UNL     1       2.214   0.311  -0.080  1.00  0.00     0.134 C 
ATOM      5  C   UNL     1       0.037  -0.677  -0.013  1.00  0.00     0.005 C 
ATOM      6  C   UNL     1       0.976  -1.839   0.294  1.00  0.00     0.011 C 
ATOM      7  C   UNL     1       0.787   0.562   0.514  1.00  0.00     0.010 C 
ATOM      8  C   UNL     1      -1.438  -0.738   0.461  1.00  0.00     0.035 C 
ATOM      9  C   UNL     1       2.399  -1.242   0.136  1.00  0.00     0.026 C 
ATOM     10  C   UNL     1       0.877   0.618   2.081  1.00  0.00     0.015 C 
ATOM     11  C   UNL     1       0.057   1.831  -0.009  1.00  0.00     0.045 C 
ATOM     12  C   UNL     1      -2.192   0.526  -0.080  1.00  0.00     0.152 C 
ATOM     13  C   UNL     1      -2.148  -2.079   0.095  1.00  0.00     0.012 C 
ATOM     14  C   UNL     1       3.173  -1.952  -0.989  1.00  0.00     0.011 C 
ATOM     15  C   UNL     1      -1.461   1.851   0.339  1.00  0.00     0.154 C 
ATOM     16  F   UNL     1      -2.114   0.507  -1.470  1.00  0.00    -0.239 F 
ATOM     17  C   UNL     1      -3.728   0.438   0.281  1.00  0.00     0.044 C 
ATOM     18  C   UNL     1      -3.416  -1.973  -0.772  1.00  0.00     0.032 C 
ATOM     19  C   UNL     1      -4.289  -0.770  -0.487  1.00  0.00    -0.053 C 
ATOM     20  C   UNL     1      -4.455   1.730  -0.095  1.00  0.00    -0.009 C 
ATOM     21  C   UNL     1      -4.018   0.199   1.784  1.00  0.00     0.024 C 
ATOM     22  C   UNL     1      -5.527  -0.754  -1.007  1.00  0.00     0.052 C 
ATOM     23  C   UNL     1      -5.687   1.733  -0.609  1.00  0.00     0.048 C 
ATOM     24  C   UNL     1      -6.320   0.477  -1.010  1.00  0.00     0.178 C 
ATOM     25  O   UNL     1      -7.514   0.465  -1.409  1.00  0.00    -0.290 OA
BRANCH   4  26
ATOM     26  O   UNL     1       2.184   0.598  -1.465  1.00  0.00    -0.381 OA
ATOM     27  H   UNL     1       3.116   0.592  -1.809  1.00  0.00     0.212 HD
ENDBRANCH   4  26
BRANCH  15  28
ATOM     28  O   UNL     1      -1.657   2.140   1.697  1.00  0.00    -0.390 OA
ATOM     29  H   UNL     1      -1.434   3.099   1.826  1.00  0.00     0.211 HD
ENDBRANCH  15  28
ENDBRANCH   2   4
ENDBRANCH   1   2
BRANCH   1  30
ATOM     30  O   UNL     1       5.298  -0.097   0.742  1.00  0.00    -0.458 OA
BRANCH  30  31
ATOM     31  C   UNL     1       6.183   0.420  -0.211  1.00  0.00     0.303 C 
ATOM     32  C   UNL     1       7.067  -0.508  -0.972  1.00  0.00     0.139 C 
ATOM     33  O   UNL     1       6.220   1.656  -0.457  1.00  0.00    -0.253 OA
ENDBRANCH  30  31
ENDBRANCH   1  30
TORSDOF 6
