REMARK SMILES C[C@]12CC[C@@H]3c4ccc(O)cc4CC[C@H]3[C@@H]1C[C@@H]([18F])[C@@H]2O
REMARK SMILES IDX 16 1 17 2 18 3 19 4 20 5 2 6 1 7 3 8 4 9 5 10 6 11 12 12
REMARK SMILES IDX 13 13 14 14 15 15 11 16 9 17 8 18 7 19 21 20 10 22
REMARK H PARENT 21 21 10 23
REMARK Flexibility Score: inf
ROOT
ATOM      1  C   UNL     1      -1.550  -0.473   0.438  1.00  0.00     0.004 C 
ATOM      2  C   UNL     1      -2.485  -1.676   0.464  1.00  0.00     0.045 C 
ATOM      3  C   UNL     1      -3.894  -1.060   0.355  1.00  0.00     0.196 C 
ATOM      4  F   UNL     1      -4.581  -1.208   1.550  1.00  0.00    -0.245 F 
ATOM      5  C   UNL     1      -3.687   0.445   0.041  1.00  0.00     0.155 C 
ATOM      6  C   UNL     1      -2.240   0.539  -0.489  1.00  0.00    -0.000 C 
ATOM      7  C   UNL     1      -2.198   0.148  -2.002  1.00  0.00     0.014 C 
ATOM      8  C   UNL     1      -1.561   1.910  -0.282  1.00  0.00     0.010 C 
ATOM      9  C   UNL     1      -0.034   1.833  -0.538  1.00  0.00     0.009 C 
ATOM     10  C   UNL     1       0.670   0.690   0.259  1.00  0.00     0.023 C 
ATOM     11  C   UNL     1       2.161   0.537  -0.047  1.00  0.00    -0.041 A 
ATOM     12  C   UNL     1       2.804  -0.719   0.138  1.00  0.00    -0.041 A 
ATOM     13  C   UNL     1       2.037  -1.981   0.472  1.00  0.00     0.036 C 
ATOM     14  C   UNL     1       0.612  -1.720   0.968  1.00  0.00     0.009 C 
ATOM     15  C   UNL     1      -0.066  -0.672   0.077  1.00  0.00     0.001 C 
ATOM     16  C   UNL     1       4.187  -0.833  -0.073  1.00  0.00     0.050 A 
ATOM     17  C   UNL     1       4.951   0.282  -0.418  1.00  0.00     0.115 A 
ATOM     18  C   UNL     1       4.336   1.527  -0.555  1.00  0.00     0.046 A 
ATOM     19  C   UNL     1       2.960   1.658  -0.359  1.00  0.00     0.008 A 
ENDROOT
BRANCH   5  20
ATOM     20  O   UNL     1      -4.650   0.980  -0.839  1.00  0.00    -0.390 OA
ATOM     21  H   UNL     1      -4.824   0.324  -1.561  1.00  0.00     0.211 HD
ENDBRANCH   5  20
BRANCH  17  22
ATOM     22  O   UNL     1       6.323   0.141  -0.617  1.00  0.00    -0.508 OA
ATOM     23  H   UNL     1       6.906   0.931  -0.867  1.00  0.00     0.293 HD
ENDBRANCH  17  22
TORSDOF 2
