REMARK SMILES N#Cc1cccc([C@@H](NCC2CC2)c2ccc(F)c(NC(=O)c3cc(C(F)(F)F)nn3-c3cccc(CN)c3)c2)c1
REMARK SMILES IDX 19 1 40 2 14 3 15 4 16 5 17 6 18 7 20 8 21 9 22 10 23 12
REMARK SMILES IDX 31 13 30 14 25 15 24 16 32 17 36 18 39 19 35 20 34 21 33 22
REMARK SMILES IDX 37 23 38 24 26 27 27 28 28 29 29 30 8 31 9 32 10 34 11 35
REMARK SMILES IDX 12 36 13 37 7 38 6 39 41 40 5 41 3 42 4 43 2 44 1 45
REMARK H PARENT 20 11 38 25 38 26 9 33
REMARK Flexibility Score: inf
ROOT
ATOM      1  C   UNL     1      -0.091   0.405   0.597  1.00  0.00     0.078 A 
ATOM      2  C   UNL     1      -1.266  -0.340   0.766  1.00  0.00     0.035 A 
ATOM      3  C   UNL     1      -2.513   0.175   0.370  1.00  0.00    -0.024 A 
ATOM      4  C   UNL     1      -2.572   1.486  -0.143  1.00  0.00     0.009 A 
ATOM      5  C   UNL     1      -1.405   2.238  -0.296  1.00  0.00     0.042 A 
ATOM      6  C   UNL     1      -0.167   1.705   0.069  1.00  0.00     0.146 A 
ATOM      7  F   UNL     1       0.946   2.472  -0.047  1.00  0.00    -0.205 F 
ENDROOT
BRANCH   1   8
ATOM      8  N   UNL     1       1.160  -0.154   1.021  1.00  0.00    -0.318 N 
ATOM      9  C   UNL     1       2.331  -0.166   0.188  1.00  0.00     0.274 C 
ATOM     10  O   UNL     1       2.237   0.183  -1.020  1.00  0.00    -0.267 OA
ATOM     11  H   UNL     1       1.161  -0.703   1.908  1.00  0.00     0.170 HD
BRANCH   9  12
ATOM     12  C   UNL     1       3.634  -0.643   0.716  1.00  0.00     0.133 A 
ATOM     13  N   UNL     1       4.833  -0.545   0.090  1.00  0.00    -0.227 N 
ATOM     14  N   UNL     1       5.760  -1.163   0.804  1.00  0.00    -0.163 NA
ATOM     15  C   UNL     1       5.162  -1.664   1.902  1.00  0.00     0.167 A 
ATOM     16  C   UNL     1       3.817  -1.351   1.892  1.00  0.00     0.069 A 
BRANCH  13  17
ATOM     17  C   UNL     1       5.137   0.139  -1.133  1.00  0.00     0.066 A 
ATOM     18  C   UNL     1       5.140   2.169  -2.482  1.00  0.00    -0.032 A 
ATOM     19  C   UNL     1       4.823   1.499  -1.290  1.00  0.00     0.033 A 
ATOM     20  C   UNL     1       5.808   1.477  -3.505  1.00  0.00     0.005 A 
ATOM     21  C   UNL     1       6.142   0.130  -3.343  1.00  0.00     0.003 A 
ATOM     22  C   UNL     1       5.814  -0.536  -2.159  1.00  0.00     0.028 A 
BRANCH  18  23
ATOM     23  C   UNL     1       4.832   3.634  -2.633  1.00  0.00     0.113 C 
BRANCH  23  24
ATOM     24  N   UNL     1       5.926   4.433  -2.090  1.00  0.00    -0.326 NA
ATOM     25  H   UNL     1       6.772   4.280  -2.689  1.00  0.00     0.119 HD
ATOM     26  H   UNL     1       5.667   5.441  -2.196  1.00  0.00     0.119 HD
ENDBRANCH  23  24
ENDBRANCH  18  23
ENDBRANCH  13  17
BRANCH  15  27
ATOM     27  C   UNL     1       5.875  -2.413   2.982  1.00  0.00     0.435 C 
ATOM     28  F   UNL     1       7.183  -2.667   2.607  1.00  0.00    -0.164 F 
ATOM     29  F   UNL     1       5.876  -1.661   4.140  1.00  0.00    -0.164 F 
ATOM     30  F   UNL     1       5.233  -3.615   3.217  1.00  0.00    -0.164 F 
ENDBRANCH  15  27
ENDBRANCH   9  12
ENDBRANCH   1   8
BRANCH   3  31
ATOM     31  C   UNL     1      -3.761  -0.676   0.570  1.00  0.00     0.115 C 
BRANCH  31  32
ATOM     32  N   UNL     1      -4.696  -0.642  -0.574  1.00  0.00    -0.306 NA
ATOM     33  H   UNL     1      -5.034   0.329  -0.760  1.00  0.00     0.123 HD
BRANCH  32  34
ATOM     34  C   UNL     1      -4.089  -1.160  -1.808  1.00  0.00     0.085 C 
BRANCH  34  35
ATOM     35  C   UNL     1      -5.198  -1.462  -2.824  1.00  0.00     0.003 C 
ATOM     36  C   UNL     1      -4.799  -2.374  -3.973  1.00  0.00     0.005 C 
ATOM     37  C   UNL     1      -5.682  -2.905  -2.855  1.00  0.00     0.005 C 
ENDBRANCH  34  35
ENDBRANCH  32  34
ENDBRANCH  31  32
BRANCH  31  38
ATOM     38  C   UNL     1      -4.461  -0.290   1.861  1.00  0.00    -0.025 A 
ATOM     39  C   UNL     1      -5.214   0.897   1.965  1.00  0.00     0.006 A 
ATOM     40  C   UNL     1      -4.306  -1.097   3.006  1.00  0.00     0.025 A 
ATOM     41  C   UNL     1      -5.818   1.250   3.175  1.00  0.00     0.002 A 
ATOM     42  C   UNL     1      -4.913  -0.739   4.216  1.00  0.00     0.052 A 
ATOM     43  C   UNL     1      -5.673   0.434   4.297  1.00  0.00     0.019 A 
BRANCH  42  44
ATOM     44  C   UNL     1      -4.741  -1.566   5.381  1.00  0.00     0.099 C 
ATOM     45  N   UNL     1      -4.600  -2.231   6.318  1.00  0.00    -0.192 NA
ENDBRANCH  42  44
ENDBRANCH  31  38
ENDBRANCH   3  31
TORSDOF 12
