REMARK SMILES COc1ccc(-n2nccn2)c(C(=O)N2CCC[C@@]2(C)c2nc3c(C)c(Cl)ccc3[nH]2)c1
REMARK SMILES IDX 13 1 14 2 12 3 3 4 32 5 4 6 5 7 6 8 2 9 1 10 7 11 8 12 11 13
REMARK SMILES IDX 9 14 10 15 15 16 16 17 19 18 17 19 18 20 20 21 21 22 22 23
REMARK SMILES IDX 31 24 23 25 30 26 24 28 29 29 26 30 25 31 28 32 27 33
REMARK H PARENT 31 27
REMARK Flexibility Score: inf
ROOT
ATOM      1  C   UNL     1      -1.753   0.616   1.156  1.00  0.00     0.257 C 
ATOM      2  O   UNL     1      -2.174   1.799   1.349  1.00  0.00    -0.269 OA
ENDROOT
BRANCH   1   3
ATOM      3  C   UNL     1      -2.497  -0.255   0.227  1.00  0.00     0.071 A 
ATOM      4  C   UNL     1      -4.009  -2.146  -0.078  1.00  0.00     0.119 A 
ATOM      5  C   UNL     1      -3.299  -1.280   0.759  1.00  0.00     0.062 A 
ATOM      6  C   UNL     1      -3.929  -1.981  -1.467  1.00  0.00     0.049 A 
ATOM      7  C   UNL     1      -3.135  -0.965  -2.010  1.00  0.00     0.035 A 
ATOM      8  C   UNL     1      -2.426  -0.083  -1.178  1.00  0.00     0.099 A 
BRANCH   4   9
ATOM      9  O   UNL     1      -4.779  -3.155   0.512  1.00  0.00    -0.497 OA
ATOM     10  C   UNL     1      -5.619  -4.056  -0.211  1.00  0.00     0.278 C 
ENDBRANCH   4   9
BRANCH   8  11
ATOM     11  N   UNL     1      -1.619   0.957  -1.790  1.00  0.00    -0.151 N 
ATOM     12  N   UNL     1      -1.526   2.203  -1.326  1.00  0.00    -0.157 NA
ATOM     13  N   UNL     1      -0.951   0.795  -2.925  1.00  0.00    -0.157 NA
ATOM     14  C   UNL     1      -0.748   2.876  -2.191  1.00  0.00     0.157 A 
ATOM     15  C   UNL     1      -0.389   1.994  -3.194  1.00  0.00     0.157 A 
ENDBRANCH   8  11
ENDBRANCH   1   3
BRANCH   1  16
ATOM     16  N   UNL     1      -0.593   0.126   1.867  1.00  0.00    -0.326 N 
ATOM     17  C   UNL     1      -0.588  -1.173   2.532  1.00  0.00     0.121 C 
ATOM     18  C   UNL     1       0.674   0.851   2.053  1.00  0.00     0.098 C 
ATOM     19  C   UNL     1       0.783  -1.301   3.197  1.00  0.00     0.024 C 
ATOM     20  C   UNL     1       1.341   0.120   3.244  1.00  0.00     0.038 C 
ATOM     21  C   UNL     1       0.470   2.351   2.392  1.00  0.00     0.043 C 
BRANCH  18  22
ATOM     22  C   UNL     1       1.548   0.713   0.813  1.00  0.00     0.133 A 
ATOM     23  N   UNL     1       2.811   1.201   0.743  1.00  0.00    -0.231 NA
ATOM     24  N   UNL     1       1.166   0.073  -0.318  1.00  0.00    -0.340 N 
ATOM     25  C   UNL     1       3.214   0.844  -0.492  1.00  0.00     0.093 A 
ATOM     26  C   UNL     1       2.220   0.166  -1.127  1.00  0.00     0.066 A 
ATOM     27  H   UNL     1       0.271  -0.404  -0.521  1.00  0.00     0.168 HD
ATOM     28  C   UNL     1       4.448   1.099  -1.107  1.00  0.00    -0.005 A 
ATOM     29  C   UNL     1       2.355  -0.327  -2.422  1.00  0.00     0.030 A 
ATOM     30  C   UNL     1       4.626   0.596  -2.423  1.00  0.00     0.046 A 
ATOM     31  C   UNL     1       5.548   1.849  -0.390  1.00  0.00     0.048 C 
ATOM     32  C   UNL     1       3.577  -0.109  -3.071  1.00  0.00     0.023 A 
ATOM     33  Cl  UNL     1       6.134   0.835  -3.292  1.00  0.00    -0.084 Cl
ENDBRANCH  18  22
ENDBRANCH   1  16
TORSDOF 5
