REMARK SMILES C[C@@H]1[C@H](c2ccccc2)C[C@H](NC(=O)c2cnc3c(c2)C[C@@]2(C3)C(=O)Nc3ncccc32)C(=O)N1CC(F)(F)F
REMARK SMILES IDX 1 1 2 2 3 3 10 4 11 5 33 6 34 7 35 8 4 9 5 10 9 11 6 12 8 13
REMARK SMILES IDX 7 14 36 15 37 16 38 17 39 18 40 19 12 20 13 21 14 23 15 24
REMARK SMILES IDX 16 25 20 26 17 27 19 28 18 29 21 30 23 31 22 32 24 33 32 34
REMARK SMILES IDX 25 35 26 36 27 37 31 38 28 40 30 41 29 42
REMARK H PARENT 12 22 26 39
REMARK Flexibility Score: inf
ROOT
ATOM      1  C   UNL     1      -3.501  -0.038  -1.970  1.00  0.00     0.032 C 
ATOM      2  C   UNL     1      -4.382  -0.531  -0.798  1.00  0.00     0.090 C 
ATOM      3  C   UNL     1      -4.448   0.462   0.392  1.00  0.00     0.044 C 
ATOM      4  C   UNL     1      -3.014   0.736   0.893  1.00  0.00     0.045 C 
ATOM      5  C   UNL     1      -2.268  -0.556   1.312  1.00  0.00     0.172 C 
ATOM      6  C   UNL     1      -2.710  -1.808   0.578  1.00  0.00     0.245 C 
ATOM      7  O   UNL     1      -2.097  -2.886   0.814  1.00  0.00    -0.272 OA
ATOM      8  N   UNL     1      -3.852  -1.811  -0.307  1.00  0.00    -0.328 N 
ENDROOT
BRANCH   3   9
ATOM      9  C   UNL     1      -5.237   1.756   0.158  1.00  0.00    -0.043 A 
ATOM     10  C   UNL     1      -5.437   2.629   1.248  1.00  0.00     0.004 A 
ATOM     11  C   UNL     1      -5.855   2.081  -1.073  1.00  0.00     0.004 A 
ATOM     12  C   UNL     1      -6.167   3.810   1.100  1.00  0.00     0.000 A 
ATOM     13  C   UNL     1      -6.587   3.263  -1.214  1.00  0.00     0.000 A 
ATOM     14  C   UNL     1      -6.735   4.131  -0.132  1.00  0.00     0.000 A 
ENDBRANCH   3   9
BRANCH   8  15
ATOM     15  C   UNL     1      -4.556  -3.072  -0.595  1.00  0.00     0.235 C 
BRANCH  15  16
ATOM     16  C   UNL     1      -3.974  -3.779  -1.821  1.00  0.00     0.406 C 
ATOM     17  F   UNL     1      -4.632  -4.980  -2.011  1.00  0.00    -0.169 F 
ATOM     18  F   UNL     1      -4.144  -2.999  -2.949  1.00  0.00    -0.169 F 
ATOM     19  F   UNL     1      -2.627  -4.034  -1.641  1.00  0.00    -0.169 F 
ENDBRANCH  15  16
ENDBRANCH   8  15
BRANCH   5  20
ATOM     20  N   UNL     1      -0.825  -0.368   1.142  1.00  0.00    -0.340 N 
ATOM     21  C   UNL     1      -0.039   0.417   2.053  1.00  0.00     0.253 C 
ATOM     22  H   UNL     1      -0.392  -0.675   0.240  1.00  0.00     0.164 HD
ATOM     23  O   UNL     1      -0.603   1.034   2.996  1.00  0.00    -0.269 OA
BRANCH  21  24
ATOM     24  C   UNL     1       1.425   0.546   1.875  1.00  0.00     0.058 A 
ATOM     25  C   UNL     1       2.106   1.683   2.370  1.00  0.00     0.125 A 
ATOM     26  C   UNL     1       2.170  -0.450   1.214  1.00  0.00     0.021 A 
ATOM     27  N   UNL     1       3.450   1.823   2.182  1.00  0.00    -0.260 NA
ATOM     28  C   UNL     1       3.542  -0.267   1.055  1.00  0.00    -0.024 A 
ATOM     29  C   UNL     1       4.152   0.862   1.531  1.00  0.00     0.045 A 
ATOM     30  C   UNL     1       4.495  -1.183   0.388  1.00  0.00     0.059 C 
ATOM     31  C   UNL     1       5.603   0.902   1.244  1.00  0.00     0.078 C 
ATOM     32  C   UNL     1       5.866  -0.478   0.583  1.00  0.00     0.088 C 
ATOM     33  C   UNL     1       6.830  -1.319   1.394  1.00  0.00     0.237 C 
ATOM     34  C   UNL     1       6.651  -0.371  -0.698  1.00  0.00     0.011 A 
ATOM     35  O   UNL     1       6.628  -1.690   2.581  1.00  0.00    -0.274 OA
ATOM     36  N   UNL     1       8.015  -1.653   0.678  1.00  0.00    -0.310 N 
ATOM     37  C   UNL     1       7.844  -1.049  -0.590  1.00  0.00     0.136 A 
ATOM     38  C   UNL     1       6.325   0.284  -1.886  1.00  0.00     0.010 A 
ATOM     39  H   UNL     1       8.838  -2.198   1.021  1.00  0.00     0.171 HD
ATOM     40  N   UNL     1       8.735  -1.107  -1.611  1.00  0.00    -0.239 NA
ATOM     41  C   UNL     1       7.242   0.230  -2.947  1.00  0.00     0.021 A 
ATOM     42  C   UNL     1       8.451  -0.478  -2.789  1.00  0.00     0.113 A 
ENDBRANCH  21  24
ENDBRANCH   5  20
TORSDOF 5
