REMARK SMILES Cn1cc(-c2cc3c(N4CCN(c5ncc([C@@](C)(N)c6ccc(F)cc6)cn5)CC4)ncnn3c2)cn1
REMARK SMILES IDX 9 1 10 2 11 3 12 4 29 5 30 6 8 7 5 8 35 9 6 10 34 11 7 12
REMARK SMILES IDX 33 13 32 14 31 15 4 16 1 17 2 18 3 19 37 20 36 21 13 22
REMARK SMILES IDX 14 23 28 24 15 25 27 26 16 27 17 28 18 29 19 30 20 33 21 34
REMARK SMILES IDX 26 35 22 36 25 37 23 38 24 39
REMARK H PARENT 19 31 19 32
REMARK Flexibility Score: inf
ROOT
ATOM      1  N   UNL     1       2.000  -1.118   1.013  1.00  0.00    -0.351 N 
ATOM      2  C   UNL     1       1.583  -0.543  -0.269  1.00  0.00     0.139 C 
ATOM      3  C   UNL     1       0.111  -0.869  -0.532  1.00  0.00     0.141 C 
ATOM      4  N   UNL     1      -0.701  -0.561   0.656  1.00  0.00    -0.337 N 
ATOM      5  C   UNL     1      -0.269  -1.138   1.940  1.00  0.00     0.141 C 
ATOM      6  C   UNL     1       1.200  -0.807   2.200  1.00  0.00     0.139 C 
ENDROOT
BRANCH   1   7
ATOM      7  C   UNL     1       3.154  -1.970   1.115  1.00  0.00     0.156 A 
ATOM      8  C   UNL     1       6.163  -0.666  -0.347  1.00  0.00     0.005 A 
ATOM      9  C   UNL     1       6.517  -1.919   0.140  1.00  0.00     0.122 A 
ATOM     10  C   UNL     1       4.809  -0.467  -0.069  1.00  0.00     0.042 A 
ATOM     11  N   UNL     1       5.427  -2.469   0.697  1.00  0.00    -0.235 N 
ATOM     12  C   UNL     1       4.396  -1.621   0.574  1.00  0.00     0.108 A 
ATOM     13  N   UNL     1       5.340  -3.637   1.328  1.00  0.00    -0.156 NA
ATOM     14  C   UNL     1       4.144  -3.998   1.877  1.00  0.00     0.247 A 
ATOM     15  N   UNL     1       3.066  -3.165   1.769  1.00  0.00    -0.215 NA
BRANCH   8  16
ATOM     16  C   UNL     1       7.061   0.295  -1.007  1.00  0.00     0.021 A 
ATOM     17  C   UNL     1      10.206   1.530  -2.287  1.00  0.00     0.173 C 
ATOM     18  N   UNL     1       8.837   1.262  -1.874  1.00  0.00    -0.275 N 
ATOM     19  C   UNL     1       8.405   0.140  -1.270  1.00  0.00     0.117 A 
ATOM     20  N   UNL     1       7.844   2.127  -2.000  1.00  0.00    -0.181 NA
ATOM     21  C   UNL     1       6.740   1.555  -1.481  1.00  0.00     0.143 A 
ENDBRANCH   8  16
ENDBRANCH   1   7
BRANCH   4  22
ATOM     22  C   UNL     1      -2.009   0.040   0.519  1.00  0.00     0.225 A 
ATOM     23  N   UNL     1      -2.728   0.389   1.622  1.00  0.00    -0.221 NA
ATOM     24  N   UNL     1      -2.529   0.278  -0.714  1.00  0.00    -0.221 NA
ATOM     25  C   UNL     1      -3.949   0.976   1.522  1.00  0.00     0.122 A 
ATOM     26  C   UNL     1      -3.744   0.862  -0.867  1.00  0.00     0.122 A 
ATOM     27  C   UNL     1      -4.502   1.247   0.255  1.00  0.00     0.013 A 
BRANCH  27  28
ATOM     28  C   UNL     1      -5.866   1.919   0.045  1.00  0.00     0.067 C 
ATOM     29  C   UNL     1      -6.502   2.439   1.360  1.00  0.00     0.038 C 
BRANCH  28  30
ATOM     30  N   UNL     1      -5.666   3.073  -0.849  1.00  0.00    -0.318 NA
ATOM     31  H   UNL     1      -6.551   3.626  -0.929  1.00  0.00     0.120 HD
ATOM     32  H   UNL     1      -4.950   3.714  -0.434  1.00  0.00     0.120 HD
ENDBRANCH  28  30
BRANCH  28  33
ATOM     33  C   UNL     1      -6.813   0.890  -0.591  1.00  0.00    -0.024 A 
ATOM     34  C   UNL     1      -7.120  -0.301   0.105  1.00  0.00     0.009 A 
ATOM     35  C   UNL     1      -7.365   1.071  -1.880  1.00  0.00     0.009 A 
ATOM     36  C   UNL     1      -7.966  -1.263  -0.457  1.00  0.00     0.039 A 
ATOM     37  C   UNL     1      -8.210   0.105  -2.435  1.00  0.00     0.039 A 
ATOM     38  C   UNL     1      -8.512  -1.060  -1.725  1.00  0.00     0.123 A 
ATOM     39  F   UNL     1      -9.327  -1.998  -2.271  1.00  0.00    -0.207 F 
ENDBRANCH  28  33
ENDBRANCH  27  28
ENDBRANCH   4  22
TORSDOF 6
