REMARK SMILES Cc1ccc(NC(=O)[C@H]2CCCN(C(=O)c3c(C)cccc3F)[C@H]2c2ccc(NC3CCCC3)cc2)cc1C(F)(F)F
REMARK SMILES IDX 9 1 10 2 11 3 12 4 13 5 24 6 7 7 6 8 8 10 5 11 1 12 2 13
REMARK SMILES IDX 3 14 38 15 4 16 37 17 39 18 40 19 41 20 42 21 25 22 26 23
REMARK SMILES IDX 36 24 27 25 35 26 28 27 29 28 30 30 31 31 34 32 32 33 33 34
REMARK SMILES IDX 14 35 15 36 16 37 22 38 17 39 23 40 21 41 19 42 18 43 20 44
REMARK H PARENT 6 9 29 29
REMARK Flexibility Score: inf
ROOT
ATOM      1  C   UNL     1       1.236   0.315   2.569  1.00  0.00     0.106 C 
ATOM      2  C   UNL     1       2.290   0.959   3.485  1.00  0.00     0.018 C 
ATOM      3  C   UNL     1       2.879   2.227   2.863  1.00  0.00     0.022 C 
ATOM      4  C   UNL     1       1.778   3.230   2.517  1.00  0.00     0.120 C 
ATOM      5  N   UNL     1       0.705   2.622   1.709  1.00  0.00    -0.331 N 
ATOM      6  C   UNL     1       0.130   1.340   2.190  1.00  0.00     0.128 C 
ENDROOT
BRANCH   1   7
ATOM      7  C   UNL     1       1.900  -0.347   1.381  1.00  0.00     0.229 C 
ATOM      8  N   UNL     1       2.092  -1.773   1.373  1.00  0.00    -0.326 N 
ATOM      9  H   UNL     1       1.957  -2.294   2.268  1.00  0.00     0.169 HD
ATOM     10  O   UNL     1       2.334   0.354   0.429  1.00  0.00    -0.274 OA
BRANCH   8  11
ATOM     11  C   UNL     1       2.649  -2.485   0.256  1.00  0.00     0.041 A 
ATOM     12  C   UNL     1       4.389  -4.577  -3.111  1.00  0.00     0.045 C 
ATOM     13  C   UNL     1       3.776  -3.895  -1.912  1.00  0.00    -0.039 A 
ATOM     14  C   UNL     1       2.859  -2.852  -2.131  1.00  0.00     0.006 A 
ATOM     15  C   UNL     1       4.121  -4.254  -0.580  1.00  0.00     0.060 A 
ATOM     16  C   UNL     1       2.297  -2.160  -1.061  1.00  0.00     0.026 A 
ATOM     17  C   UNL     1       3.536  -3.543   0.489  1.00  0.00     0.039 A 
BRANCH  15  18
ATOM     18  C   UNL     1       5.115  -5.364  -0.291  1.00  0.00     0.416 C 
ATOM     19  F   UNL     1       4.655  -6.559  -0.816  1.00  0.00    -0.166 F 
ATOM     20  F   UNL     1       6.339  -5.055  -0.859  1.00  0.00    -0.166 F 
ATOM     21  F   UNL     1       5.308  -5.542   1.069  1.00  0.00    -0.166 F 
ENDBRANCH  15  18
ENDBRANCH   8  11
ENDBRANCH   1   7
BRANCH   6  22
ATOM     22  C   UNL     1      -0.882   0.716   1.231  1.00  0.00    -0.024 A 
ATOM     23  C   UNL     1      -2.020   0.073   1.749  1.00  0.00     0.008 A 
ATOM     24  C   UNL     1      -0.688   0.724  -0.161  1.00  0.00     0.008 A 
ATOM     25  C   UNL     1      -2.961  -0.509   0.893  1.00  0.00     0.026 A 
ATOM     26  C   UNL     1      -1.624   0.138  -1.014  1.00  0.00     0.026 A 
ATOM     27  C   UNL     1      -2.777  -0.476  -0.502  1.00  0.00     0.034 A 
BRANCH  27  28
ATOM     28  N   UNL     1      -3.746  -1.021  -1.420  1.00  0.00    -0.382 N 
ATOM     29  H   UNL     1      -3.593  -0.844  -2.439  1.00  0.00     0.160 HD
BRANCH  28  30
ATOM     30  C   UNL     1      -4.969  -1.727  -1.013  1.00  0.00     0.079 C 
ATOM     31  C   UNL     1      -4.664  -3.138  -0.513  1.00  0.00     0.025 C 
ATOM     32  C   UNL     1      -5.921  -1.929  -2.186  1.00  0.00     0.025 C 
ATOM     33  C   UNL     1      -5.862  -4.000  -0.910  1.00  0.00     0.002 C 
ATOM     34  C   UNL     1      -6.745  -3.151  -1.820  1.00  0.00     0.002 C 
ENDBRANCH  28  30
ENDBRANCH  27  28
ENDBRANCH   6  22
BRANCH   5  35
ATOM     35  C   UNL     1      -0.128   3.557   0.983  1.00  0.00     0.257 C 
ATOM     36  O   UNL     1      -1.378   3.540   1.154  1.00  0.00    -0.269 OA
BRANCH  35  37
ATOM     37  C   UNL     1       0.463   4.547   0.040  1.00  0.00     0.078 A 
ATOM     38  C   UNL     1       1.531   4.156  -0.796  1.00  0.00     0.136 A 
ATOM     39  C   UNL     1      -0.031   5.877  -0.053  1.00  0.00    -0.035 A 
ATOM     40  F   UNL     1       2.046   2.904  -0.735  1.00  0.00    -0.206 F 
ATOM     41  C   UNL     1       2.070   5.049  -1.723  1.00  0.00     0.040 A 
ATOM     42  C   UNL     1       0.518   6.752  -1.005  1.00  0.00     0.004 A 
ATOM     43  C   UNL     1      -1.127   6.389   0.845  1.00  0.00     0.045 C 
ATOM     44  C   UNL     1       1.562   6.340  -1.832  1.00  0.00     0.003 A 
ENDBRANCH  35  37
ENDBRANCH   5  35
TORSDOF 8
