REMARK SMILES Cc1cc(C[C@@H](NC(=O)N2CCC(c3cc4ccccc4[nH]c3=O)CC2)C(=O)N2CCN(C3CCN(C)CC3)CC2)cc2cn[nH]c12
REMARK SMILES IDX 6 1 27 2 32 3 31 4 40 5 30 6 41 7 29 8 28 9 33 10 37 11
REMARK SMILES IDX 36 12 35 13 38 14 34 15 39 16 5 17 4 18 42 19 3 20 43 21
REMARK SMILES IDX 2 22 47 23 44 24 1 25 46 26 45 27 7 29 8 30 9 32 10 33 11 34
REMARK SMILES IDX 26 35 12 36 25 37 13 38 14 39 15 40 23 41 16 42 22 43 24 44
REMARK SMILES IDX 21 45 17 46 20 48 18 49 19 50
REMARK H PARENT 46 28 7 31 22 47
REMARK Flexibility Score: inf
ROOT
ATOM      1  C   UNL     1      -0.330   0.985   0.321  1.00  0.00     0.177 C 
ENDROOT
BRANCH   1   2
ATOM      2  C   UNL     1      -1.323   0.557  -0.745  1.00  0.00     0.245 C 
ATOM      3  N   UNL     1      -5.586   0.647  -0.047  1.00  0.00    -0.297 NA
ATOM      4  C   UNL     1      -4.916  -0.518  -0.681  1.00  0.00     0.106 C 
ATOM      5  C   UNL     1      -4.639   1.252   0.924  1.00  0.00     0.106 C 
ATOM      6  C   UNL     1      -3.652  -0.095  -1.431  1.00  0.00     0.135 C 
ATOM      7  C   UNL     1      -3.358   1.731   0.235  1.00  0.00     0.135 C 
ATOM      8  N   UNL     1      -2.754   0.643  -0.539  1.00  0.00    -0.338 N 
ATOM      9  O   UNL     1      -0.883   0.060  -1.818  1.00  0.00    -0.272 OA
BRANCH   3  10
ATOM     10  C   UNL     1      -6.877   0.216   0.590  1.00  0.00     0.059 C 
ATOM     11  C   UNL     1     -10.217   2.050   0.132  1.00  0.00     0.105 C 
ATOM     12  N   UNL     1      -8.836   2.275  -0.328  1.00  0.00    -0.306 NA
ATOM     13  C   UNL     1      -7.903   2.544   0.789  1.00  0.00     0.086 C 
ATOM     14  C   UNL     1      -8.354   1.206  -1.230  1.00  0.00     0.086 C 
ATOM     15  C   UNL     1      -7.498   1.266   1.547  1.00  0.00     0.035 C 
ATOM     16  C   UNL     1      -7.962  -0.076  -0.474  1.00  0.00     0.035 C 
ENDBRANCH   3  10
ENDBRANCH   1   2
BRANCH   1  17
ATOM     17  C   UNL     1      -0.462   0.130   1.605  1.00  0.00     0.070 C 
BRANCH  17  18
ATOM     18  C   UNL     1      -0.289  -1.354   1.374  1.00  0.00    -0.044 A 
ATOM     19  C   UNL     1      -1.395  -2.141   0.984  1.00  0.00     0.015 A 
ATOM     20  C   UNL     1       0.982  -1.967   1.549  1.00  0.00     0.009 A 
ATOM     21  C   UNL     1      -1.185  -3.496   0.761  1.00  0.00     0.020 A 
ATOM     22  C   UNL     1       1.162  -3.348   1.308  1.00  0.00    -0.025 A 
ATOM     23  C   UNL     1       0.038  -4.080   0.912  1.00  0.00     0.068 A 
ATOM     24  C   UNL     1      -2.036  -4.508   0.378  1.00  0.00     0.143 A 
ATOM     25  C   UNL     1       2.501  -4.003   1.478  1.00  0.00     0.047 C 
ATOM     26  N   UNL     1      -0.062  -5.391   0.634  1.00  0.00    -0.278 N 
ATOM     27  N   UNL     1      -1.322  -5.658   0.307  1.00  0.00    -0.183 NA
ATOM     28  H   UNL     1       0.703  -6.101   0.663  1.00  0.00     0.190 HD
ENDBRANCH  17  18
ENDBRANCH   1  17
BRANCH   1  29
ATOM     29  N   UNL     1       1.042   0.937  -0.202  1.00  0.00    -0.326 N 
ATOM     30  C   UNL     1       1.552   1.924  -1.111  1.00  0.00     0.318 C 
ATOM     31  H   UNL     1       1.681   0.167   0.086  1.00  0.00     0.166 HD
ATOM     32  O   UNL     1       0.923   3.002  -1.291  1.00  0.00    -0.249 OA
ATOM     33  N   UNL     1       2.791   1.696  -1.805  1.00  0.00    -0.325 N 
ATOM     34  C   UNL     1       3.768   2.777  -1.970  1.00  0.00     0.122 C 
ATOM     35  C   UNL     1       3.176   0.357  -2.264  1.00  0.00     0.122 C 
ATOM     36  C   UNL     1       5.077   2.388  -1.272  1.00  0.00     0.030 C 
ATOM     37  C   UNL     1       4.466  -0.071  -1.560  1.00  0.00     0.030 C 
ATOM     38  C   UNL     1       5.564   1.001  -1.748  1.00  0.00     0.028 C 
BRANCH  38  39
ATOM     39  C   UNL     1       6.854   0.602  -1.042  1.00  0.00     0.021 A 
ATOM     40  C   UNL     1       6.871   0.405   0.351  1.00  0.00     0.020 A 
ATOM     41  C   UNL     1       8.061   0.433  -1.757  1.00  0.00     0.251 A 
ATOM     42  C   UNL     1       8.053   0.042   1.002  1.00  0.00    -0.002 A 
ATOM     43  N   UNL     1       9.205   0.082  -1.105  1.00  0.00    -0.322 N 
ATOM     44  O   UNL     1       8.094   0.607  -3.006  1.00  0.00    -0.269 OA
ATOM     45  C   UNL     1       9.233  -0.117   0.243  1.00  0.00     0.048 A 
ATOM     46  C   UNL     1       8.081  -0.163   2.390  1.00  0.00     0.010 A 
ATOM     47  H   UNL     1      10.083  -0.035  -1.662  1.00  0.00     0.170 HD
ATOM     48  C   UNL     1      10.427  -0.479   0.888  1.00  0.00     0.027 A 
ATOM     49  C   UNL     1       9.276  -0.524   3.020  1.00  0.00     0.001 A 
ATOM     50  C   UNL     1      10.446  -0.681   2.270  1.00  0.00     0.002 A 
ENDBRANCH  38  39
ENDBRANCH   1  29
TORSDOF 6
