REMARK SMILES C=CC(=O)N1CCC([C@@H]2CCNc3c(C(N)=O)c(-c4ccc(Oc5ccccc5)cc4)nn32)CC1
REMARK SMILES IDX 14 1 13 2 12 3 11 4 10 5 9 6 33 7 32 8 18 9 15 11 16 12
REMARK SMILES IDX 17 15 19 16 20 17 31 18 21 19 30 20 22 21 23 22 24 23 25 24
REMARK SMILES IDX 29 25 26 26 28 27 27 28 8 29 7 30 34 31 6 32 35 33 5 34 3 35
REMARK SMILES IDX 4 36 2 37 1 38
REMARK H PARENT 12 10 16 13 16 14
REMARK Flexibility Score: inf
ROOT
ATOM      1  C   UNL     1       0.738  -0.058  -2.212  1.00  0.00     0.109 A 
ATOM      2  C   UNL     1      -0.574  -0.353  -2.523  1.00  0.00     0.138 A 
ATOM      3  N   UNL     1      -1.150  -0.530  -3.819  1.00  0.00    -0.370 N 
ATOM      4  C   UNL     1      -2.571  -0.852  -3.926  1.00  0.00     0.116 C 
ATOM      5  C   UNL     1      -3.051  -1.665  -2.707  1.00  0.00     0.049 C 
ATOM      6  C   UNL     1      -2.696  -0.946  -1.375  1.00  0.00     0.114 C 
ATOM      7  N   UNL     1      -1.258  -0.618  -1.402  1.00  0.00    -0.245 N 
ATOM      8  N   UNL     1      -0.455  -0.482  -0.357  1.00  0.00    -0.170 NA
ATOM      9  C   UNL     1       0.770  -0.141  -0.817  1.00  0.00     0.107 A 
ATOM     10  H   UNL     1      -0.598  -0.336  -4.682  1.00  0.00     0.162 HD
ENDROOT
BRANCH   1  11
ATOM     11  C   UNL     1       1.847   0.171  -3.158  1.00  0.00     0.254 C 
ATOM     12  N   UNL     1       3.149  -0.351  -2.897  1.00  0.00    -0.365 N 
ATOM     13  H   UNL     1       3.950  -0.104  -3.521  1.00  0.00     0.159 HD
ATOM     14  H   UNL     1       3.317  -1.013  -2.105  1.00  0.00     0.159 HD
ATOM     15  O   UNL     1       1.640   0.813  -4.222  1.00  0.00    -0.269 OA
ENDBRANCH   1  11
BRANCH   9  16
ATOM     16  C   UNL     1       1.911   0.130   0.084  1.00  0.00     0.003 A 
ATOM     17  C   UNL     1       2.847   1.138  -0.204  1.00  0.00     0.014 A 
ATOM     18  C   UNL     1       2.033  -0.590   1.283  1.00  0.00     0.014 A 
ATOM     19  C   UNL     1       3.918   1.377   0.662  1.00  0.00     0.048 A 
ATOM     20  C   UNL     1       3.101  -0.346   2.152  1.00  0.00     0.048 A 
ATOM     21  C   UNL     1       4.062   0.619   1.837  1.00  0.00     0.127 A 
BRANCH  21  22
ATOM     22  O   UNL     1       5.115   0.841   2.735  1.00  0.00    -0.457 OA
BRANCH  22  23
ATOM     23  C   UNL     1       6.421   1.211   2.382  1.00  0.00     0.127 A 
ATOM     24  C   UNL     1       6.994   0.848   1.148  1.00  0.00     0.047 A 
ATOM     25  C   UNL     1       7.191   1.921   3.311  1.00  0.00     0.047 A 
ATOM     26  C   UNL     1       8.310   1.215   0.847  1.00  0.00     0.004 A 
ATOM     27  C   UNL     1       8.506   2.288   3.008  1.00  0.00     0.004 A 
ATOM     28  C   UNL     1       9.064   1.939   1.775  1.00  0.00     0.000 A 
ENDBRANCH  22  23
ENDBRANCH  21  22
ENDBRANCH   9  16
BRANCH   6  29
ATOM     29  C   UNL     1      -3.068  -1.770  -0.094  1.00  0.00     0.017 C 
ATOM     30  C   UNL     1      -2.993  -0.877   1.189  1.00  0.00     0.027 C 
ATOM     31  C   UNL     1      -4.451  -2.473  -0.175  1.00  0.00     0.027 C 
ATOM     32  C   UNL     1      -4.363  -0.530   1.791  1.00  0.00     0.120 C 
ATOM     33  C   UNL     1      -5.595  -1.446  -0.220  1.00  0.00     0.120 C 
ATOM     34  N   UNL     1      -5.347  -0.346   0.720  1.00  0.00    -0.339 N 
ATOM     35  C   UNL     1      -5.863   0.965   0.429  1.00  0.00     0.245 C 
ATOM     36  O   UNL     1      -5.669   1.463  -0.712  1.00  0.00    -0.270 OA
BRANCH  35  37
ATOM     37  C   UNL     1      -6.579   1.765   1.440  1.00  0.00     0.063 C 
ATOM     38  C   UNL     1      -7.013   1.256   2.594  1.00  0.00     0.014 C 
ENDBRANCH  35  37
ENDBRANCH   6  29
TORSDOF 6
