REMARK SMILES C[C@@H]1C[C@H]2[C@@H]3CCC4=CC(=O)C=C[C@]4(C)C3=CC[C@]2(C)[C@@]1(O)C(=O)CO
REMARK SMILES IDX 23 1 24 2 21 3 1 4 2 5 3 6 4 7 19 8 5 9 18 10 20 11 6 12
REMARK SMILES IDX 16 13 17 14 7 15 14 16 8 17 13 18 15 19 9 20 12 21 10 22
REMARK SMILES IDX 11 23 22 24 25 26 26 27
REMARK H PARENT 22 25 26 28
REMARK Flexibility Score: inf
ROOT
ATOM      1  C   UNL     1      -4.023   0.469   0.146  1.00  0.00     0.190 C 
ATOM      2  O   UNL     1      -4.749   0.563  -0.834  1.00  0.00    -0.294 OA
ENDROOT
BRANCH   1   3
ATOM      3  C   UNL     1      -2.810  -0.470   0.129  1.00  0.00     0.133 C 
ATOM      4  C   UNL     1      -3.580  -2.762  -0.855  1.00  0.00     0.011 C 
ATOM      5  C   UNL     1      -2.799  -1.460  -1.087  1.00  0.00     0.026 C 
ATOM      6  C   UNL     1      -1.313  -1.722  -1.425  1.00  0.00     0.011 C 
ATOM      7  C   UNL     1      -0.518  -0.871  -0.433  1.00  0.00     0.006 C 
ATOM      8  C   UNL     1      -1.456   0.286  -0.055  1.00  0.00     0.011 C 
ATOM      9  C   UNL     1       0.876  -0.372  -0.873  1.00  0.00     0.020 C 
ATOM     10  C   UNL     1      -0.871   0.946   1.213  1.00  0.00     0.038 C 
ATOM     11  C   UNL     1      -1.562   1.370  -1.180  1.00  0.00     0.015 C 
ATOM     12  C   UNL     1       1.858  -1.559  -1.108  1.00  0.00     0.013 C 
ATOM     13  C   UNL     1       1.429   0.654   0.139  1.00  0.00    -0.057 C 
ATOM     14  C   UNL     1       0.608   1.250   1.060  1.00  0.00    -0.026 C 
ATOM     15  C   UNL     1       2.888  -1.769   0.013  1.00  0.00     0.033 C 
ATOM     16  C   UNL     1       2.951   0.872   0.136  1.00  0.00     0.028 C 
ATOM     17  C   UNL     1       3.580  -0.492   0.445  1.00  0.00    -0.053 C 
ATOM     18  C   UNL     1       3.412   1.955   1.115  1.00  0.00    -0.008 C 
ATOM     19  C   UNL     1       3.418   1.361  -1.252  1.00  0.00     0.025 C 
ATOM     20  C   UNL     1       4.701  -0.595   1.177  1.00  0.00     0.052 C 
ATOM     21  C   UNL     1       4.532   1.841   1.831  1.00  0.00     0.049 C 
ATOM     22  C   UNL     1       5.278   0.582   1.833  1.00  0.00     0.178 C 
ATOM     23  O   UNL     1       6.377   0.496   2.441  1.00  0.00    -0.290 OA
BRANCH   3  24
ATOM     24  O   UNL     1      -2.766  -1.203   1.338  1.00  0.00    -0.381 OA
ATOM     25  H   UNL     1      -3.674  -1.557   1.528  1.00  0.00     0.212 HD
ENDBRANCH   3  24
ENDBRANCH   1   3
BRANCH   1  26
ATOM     26  C   UNL     1      -4.342   1.304   1.358  1.00  0.00     0.234 C 
BRANCH  26  27
ATOM     27  O   UNL     1      -4.222   2.667   1.053  1.00  0.00    -0.388 OA
ATOM     28  H   UNL     1      -5.045   2.923   0.560  1.00  0.00     0.211 HD
ENDBRANCH  26  27
ENDBRANCH   1  26
TORSDOF 4
