REMARK SMILES C=CC(=O)N1CCN(c2nc(=O)n(-c3c(C)ccnc3C(C)C)c3nc(-c4c(O)cccc4F)c(F)cc23)[C@@H](C)C1
REMARK SMILES IDX 8 1 7 2 6 3 5 4 41 5 39 6 40 7 9 8 13 9 11 10 24 11 12 12
REMARK SMILES IDX 10 13 38 14 25 15 37 16 26 17 35 18 36 19 14 20 20 21 19 22
REMARK SMILES IDX 18 23 15 24 17 25 16 26 21 27 22 28 23 29 27 30 28 31 33 32
REMARK SMILES IDX 30 33 32 34 34 35 31 36 29 37 3 39 4 40 2 41 1 42
REMARK H PARENT 29 38
REMARK Flexibility Score: inf
ROOT
ATOM      1  N   UNL     1       2.507  -0.965  -0.845  1.00  0.00    -0.350 N 
ATOM      2  C   UNL     1       3.251  -0.283  -1.909  1.00  0.00     0.140 C 
ATOM      3  C   UNL     1       4.556   0.294  -1.358  1.00  0.00     0.141 C 
ATOM      4  N   UNL     1       5.253  -0.702  -0.534  1.00  0.00    -0.335 N 
ATOM      5  C   UNL     1       4.497  -1.351   0.546  1.00  0.00     0.144 C 
ATOM      6  C   UNL     1       3.191  -1.952   0.002  1.00  0.00     0.100 C 
ATOM      7  C   UNL     1       3.458  -3.246  -0.779  1.00  0.00     0.033 C 
ENDROOT
BRANCH   1   8
ATOM      8  C   UNL     1       1.074  -0.918  -0.858  1.00  0.00     0.145 A 
ATOM      9  N   UNL     1      -1.688  -0.895  -0.943  1.00  0.00    -0.242 N 
ATOM     10  C   UNL     1      -0.978  -1.952  -1.448  1.00  0.00     0.355 A 
ATOM     11  C   UNL     1      -1.031   0.165  -0.379  1.00  0.00     0.153 A 
ATOM     12  O   UNL     1      -1.572  -2.938  -1.962  1.00  0.00    -0.245 OA
ATOM     13  N   UNL     1       0.378  -1.950  -1.400  1.00  0.00    -0.175 NA
ATOM     14  C   UNL     1       0.378   0.176  -0.321  1.00  0.00     0.064 A 
ATOM     15  N   UNL     1      -1.731   1.215   0.137  1.00  0.00    -0.226 NA
ATOM     16  C   UNL     1       1.027   1.265   0.281  1.00  0.00     0.057 A 
ATOM     17  C   UNL     1      -1.119   2.281   0.716  1.00  0.00     0.115 A 
ATOM     18  C   UNL     1       0.278   2.323   0.799  1.00  0.00     0.150 A 
ATOM     19  F   UNL     1       0.908   3.376   1.379  1.00  0.00    -0.205 F 
BRANCH   9  20
ATOM     20  C   UNL     1      -3.128  -0.905  -0.996  1.00  0.00     0.077 A 
ATOM     21  C   UNL     1      -3.888  -1.462   0.060  1.00  0.00     0.067 A 
ATOM     22  N   UNL     1      -5.248  -1.418  -0.004  1.00  0.00    -0.259 NA
ATOM     23  C   UNL     1      -5.910  -0.868  -1.053  1.00  0.00     0.112 A 
ATOM     24  C   UNL     1      -3.799  -0.331  -2.096  1.00  0.00    -0.023 A 
ATOM     25  C   UNL     1      -5.200  -0.313  -2.114  1.00  0.00     0.025 A 
ATOM     26  C   UNL     1      -3.029   0.301  -3.224  1.00  0.00     0.047 C 
BRANCH  21  27
ATOM     27  C   UNL     1      -3.235  -2.061   1.291  1.00  0.00     0.034 C 
ATOM     28  C   UNL     1      -3.457  -1.150   2.502  1.00  0.00     0.014 C 
ATOM     29  C   UNL     1      -3.778  -3.469   1.561  1.00  0.00     0.014 C 
ENDBRANCH  21  27
ENDBRANCH   9  20
BRANCH  17  30
ATOM     30  C   UNL     1      -1.938   3.377   1.252  1.00  0.00     0.081 A 
ATOM     31  C   UNL     1      -2.278   4.490   0.451  1.00  0.00     0.128 A 
ATOM     32  C   UNL     1      -2.401   3.307   2.577  1.00  0.00     0.136 A 
ATOM     33  C   UNL     1      -3.066   5.514   0.990  1.00  0.00     0.047 A 
ATOM     34  C   UNL     1      -3.190   4.335   3.100  1.00  0.00     0.040 A 
ATOM     35  F   UNL     1      -2.086   2.245   3.361  1.00  0.00    -0.206 F 
ATOM     36  C   UNL     1      -3.520   5.437   2.309  1.00  0.00     0.007 A 
BRANCH  31  37
ATOM     37  O   UNL     1      -1.849   4.602  -0.873  1.00  0.00    -0.507 OA
ATOM     38  H   UNL     1      -1.281   3.896  -1.325  1.00  0.00     0.293 HD
ENDBRANCH  31  37
ENDBRANCH  17  30
ENDBRANCH   1   8
BRANCH   4  39
ATOM     39  C   UNL     1       6.686  -0.827  -0.626  1.00  0.00     0.246 C 
ATOM     40  O   UNL     1       7.243  -0.746  -1.755  1.00  0.00    -0.270 OA
BRANCH  39  41
ATOM     41  C   UNL     1       7.513  -1.028   0.585  1.00  0.00     0.063 C 
ATOM     42  C   UNL     1       8.821  -1.272   0.524  1.00  0.00     0.014 C 
ENDBRANCH  39  41
ENDBRANCH   4  39
TORSDOF 7
