REMARK SMILES Cc1nsc(-c2nnc3n2CCN(C(=O)c2ccc(F)cc2)[C@@H]3C)n1
REMARK SMILES IDX 24 1 23 2 13 3 12 4 11 5 10 6 9 7 8 8 7 9 6 10 14 11 15 12
REMARK SMILES IDX 16 13 17 14 22 15 18 16 21 17 19 18 20 19 5 20 25 21 4 22
REMARK SMILES IDX 2 23 3 24 1 25
REMARK H PARENT
REMARK Flexibility Score: inf
ROOT
ATOM      1  C   UNL     1      -0.996   1.711   1.445  1.00  0.00     0.040 C 
ATOM      2  C   UNL     1      -0.824   0.335   0.792  1.00  0.00     0.151 C 
ATOM      3  N   UNL     1      -1.151   0.411  -0.652  1.00  0.00    -0.327 N 
ATOM      4  C   UNL     1      -0.250  -0.126  -1.689  1.00  0.00     0.142 C 
ATOM      5  C   UNL     1       1.220   0.169  -1.373  1.00  0.00     0.147 C 
ATOM      6  N   UNL     1       1.496  -0.172   0.018  1.00  0.00    -0.305 N 
ATOM      7  C   UNL     1       0.588  -0.132   1.001  1.00  0.00     0.156 A 
ATOM      8  N   UNL     1       1.125  -0.465   2.190  1.00  0.00    -0.133 NA
ATOM      9  N   UNL     1       2.409  -0.715   1.970  1.00  0.00    -0.127 NA
ATOM     10  C   UNL     1       2.636  -0.522   0.654  1.00  0.00     0.194 A 
ENDROOT
BRANCH   3  11
ATOM     11  C   UNL     1      -2.460   0.840  -1.065  1.00  0.00     0.254 C 
ATOM     12  O   UNL     1      -2.563   1.790  -1.887  1.00  0.00    -0.269 OA
BRANCH  11  13
ATOM     13  C   UNL     1      -3.684   0.189  -0.546  1.00  0.00     0.040 A 
ATOM     14  C   UNL     1      -3.671  -1.167  -0.174  1.00  0.00     0.017 A 
ATOM     15  C   UNL     1      -4.886   0.912  -0.453  1.00  0.00     0.017 A 
ATOM     16  C   UNL     1      -4.833  -1.779   0.305  1.00  0.00     0.040 A 
ATOM     17  C   UNL     1      -6.046   0.296   0.027  1.00  0.00     0.040 A 
ATOM     18  C   UNL     1      -6.019  -1.048   0.408  1.00  0.00     0.123 A 
ATOM     19  F   UNL     1      -7.145  -1.644   0.873  1.00  0.00    -0.207 F 
ENDBRANCH  11  13
ENDBRANCH   3  11
BRANCH  10  20
ATOM     20  C   UNL     1       3.978  -0.639   0.057  1.00  0.00     0.181 A 
ATOM     21  N   UNL     1       5.046  -1.145   0.709  1.00  0.00    -0.216 NA
ATOM     22  S   UNL     1       4.495  -0.109  -1.433  1.00  0.00    -0.010 S 
ATOM     23  C   UNL     1       6.186  -1.095  -0.049  1.00  0.00     0.140 A 
ATOM     24  N   UNL     1       6.092  -0.535  -1.287  1.00  0.00    -0.176 NA
ATOM     25  C   UNL     1       7.494  -1.568   0.489  1.00  0.00     0.091 C 
ENDBRANCH  10  20
TORSDOF 3
