REMARK SMILES CC(=O)OCC(=O)[C@@]1(O)CC[C@H]2[C@@H]3CCC4=CC(=O)C=C[C@]4(C)[C@H]3[C@@H](O)C[C@@]21C
REMARK SMILES IDX 5 1 6 2 7 3 8 4 12 5 11 6 28 7 13 8 10 9 29 10 27 11 24 12
REMARK SMILES IDX 14 13 25 14 22 15 15 16 16 17 21 18 23 19 17 20 20 21 18 22
REMARK SMILES IDX 19 23 9 24 26 26 4 28 2 29 1 30 3 31
REMARK H PARENT 9 25 26 27
REMARK Flexibility Score: inf
ROOT
ATOM      1  C   UNL     1      -4.845  -0.864  -0.640  1.00  0.00     0.311 C 
ENDROOT
BRANCH   1   2
ATOM      2  C   UNL     1      -3.486  -1.107  -0.045  1.00  0.00     0.202 C 
ATOM      3  O   UNL     1      -3.423  -1.679   1.033  1.00  0.00    -0.293 OA
BRANCH   2   4
ATOM      4  C   UNL     1      -2.200  -0.804  -0.823  1.00  0.00     0.132 C 
ATOM      5  C   UNL     1      -0.028   0.173  -0.979  1.00  0.00     0.002 C 
ATOM      6  C   UNL     1      -0.938   1.167  -1.688  1.00  0.00     0.008 C 
ATOM      7  C   UNL     1      -0.935  -0.505   0.059  1.00  0.00     0.009 C 
ATOM      8  C   UNL     1       1.320   0.675  -0.406  1.00  0.00    -0.000 C 
ATOM      9  C   UNL     1      -2.322   0.493  -1.676  1.00  0.00     0.044 C 
ATOM     10  C   UNL     1      -1.326   0.451   1.242  1.00  0.00     0.015 C 
ATOM     11  C   UNL     1      -0.179  -1.748   0.603  1.00  0.00     0.042 C 
ATOM     12  C   UNL     1       2.093  -0.555   0.193  1.00  0.00     0.035 C 
ATOM     13  C   UNL     1       2.150   1.346  -1.522  1.00  0.00     0.009 C 
ATOM     14  C   UNL     1       1.214  -1.392   1.189  1.00  0.00     0.119 C 
ATOM     15  C   UNL     1       3.541  -0.180   0.705  1.00  0.00     0.013 C 
ATOM     16  C   UNL     1       3.524   1.780  -1.018  1.00  0.00     0.032 C 
ATOM     17  C   UNL     1       4.241   0.596  -0.423  1.00  0.00    -0.056 C 
ATOM     18  C   UNL     1       4.296  -1.457   1.087  1.00  0.00    -0.012 C 
ATOM     19  C   UNL     1       3.532   0.725   1.961  1.00  0.00     0.021 C 
ATOM     20  C   UNL     1       5.461   0.266  -0.878  1.00  0.00     0.052 C 
ATOM     21  C   UNL     1       5.503  -1.768   0.616  1.00  0.00     0.048 C 
ATOM     22  C   UNL     1       6.162  -0.909  -0.364  1.00  0.00     0.178 C 
ATOM     23  O   UNL     1       7.321  -1.186  -0.772  1.00  0.00    -0.290 OA
BRANCH   4  24
ATOM     24  O   UNL     1      -1.948  -1.872  -1.714  1.00  0.00    -0.381 OA
ATOM     25  H   UNL     1      -2.048  -2.727  -1.217  1.00  0.00     0.212 HD
ENDBRANCH   4  24
BRANCH  14  26
ATOM     26  O   UNL     1       1.068  -0.734   2.419  1.00  0.00    -0.393 OA
ATOM     27  H   UNL     1       0.858  -1.427   3.097  1.00  0.00     0.210 HD
ENDBRANCH  14  26
ENDBRANCH   2   4
ENDBRANCH   1   2
BRANCH   1  28
ATOM     28  O   UNL     1      -5.458   0.238   0.021  1.00  0.00    -0.458 OA
BRANCH  28  29
ATOM     29  C   UNL     1      -6.731   0.704  -0.318  1.00  0.00     0.303 C 
ATOM     30  C   UNL     1      -7.306   1.866   0.419  1.00  0.00     0.139 C 
ATOM     31  O   UNL     1      -7.379   0.181  -1.265  1.00  0.00    -0.253 OA
ENDBRANCH  28  29
ENDBRANCH   1  28
TORSDOF 6
