REMARK SMILES O=C1N[C@H](O)CCN1[C@@H]1O[C@H](CO)[C@@H](O)C1(F)F
REMARK SMILES IDX 11 1 10 2 9 3 16 4 17 5 18 6 14 7 12 8 13 9 15 11 8 13 7 14
REMARK SMILES IDX 2 15 6 16 3 17 1 18 4 19 5 21
REMARK H PARENT 13 10 15 12 3 20 5 22
REMARK Flexibility Score: inf
ROOT
ATOM      1  C   UNL     1      -2.633  -0.176   0.228  1.00  0.00     0.181 C 
ATOM      2  O   UNL     1      -1.435  -0.353   0.957  1.00  0.00    -0.343 OA
ATOM      3  C   UNL     1      -0.585   0.740   0.682  1.00  0.00     0.292 C 
ATOM      4  C   UNL     1      -1.060   1.420  -0.595  1.00  0.00     0.319 C 
ATOM      5  F   UNL     1      -0.810   2.783  -0.570  1.00  0.00    -0.199 F 
ATOM      6  F   UNL     1      -0.457   0.859  -1.710  1.00  0.00    -0.199 F 
ATOM      7  C   UNL     1      -2.537   1.113  -0.604  1.00  0.00     0.220 C 
ENDROOT
BRANCH   1   8
ATOM      8  C   UNL     1      -2.864  -1.414  -0.653  1.00  0.00     0.191 C 
BRANCH   8   9
ATOM      9  O   UNL     1      -4.105  -1.341  -1.301  1.00  0.00    -0.394 OA
ATOM     10  H   UNL     1      -4.796  -1.543  -0.617  1.00  0.00     0.210 HD
ENDBRANCH   8   9
ENDBRANCH   1   8
BRANCH   7  11
ATOM     11  O   UNL     1      -3.291   2.153  -0.023  1.00  0.00    -0.384 OA
ATOM     12  H   UNL     1      -2.982   2.277   0.913  1.00  0.00     0.211 HD
ENDBRANCH   7  11
BRANCH   3  13
ATOM     13  N   UNL     1       0.818   0.303   0.559  1.00  0.00    -0.293 N 
ATOM     14  C   UNL     1       1.143  -1.110   0.305  1.00  0.00     0.129 C 
ATOM     15  C   UNL     1       1.890   1.245   0.769  1.00  0.00     0.321 C 
ATOM     16  C   UNL     1       2.467  -1.248  -0.452  1.00  0.00     0.076 C 
ATOM     17  N   UNL     1       3.250   0.838   0.582  1.00  0.00    -0.312 N 
ATOM     18  O   UNL     1       1.641   2.437   1.097  1.00  0.00    -0.248 OA
ATOM     19  C   UNL     1       3.596  -0.558   0.319  1.00  0.00     0.214 C 
ATOM     20  H   UNL     1       4.014   1.526   0.770  1.00  0.00     0.168 HD
BRANCH  19  21
ATOM     21  O   UNL     1       4.775  -0.622  -0.439  1.00  0.00    -0.374 OA
ATOM     22  H   UNL     1       5.518  -0.382   0.174  1.00  0.00     0.213 HD
ENDBRANCH  19  21
ENDBRANCH   3  13
TORSDOF 5
