REMARK SMILES C=CC(=O)N1CC[C@H](n2nc(C#Cc3cc(OC)cc(OC)c3)c3c(N)ncnc32)C1
REMARK SMILES IDX 11 1 10 2 9 3 30 4 24 5 25 6 27 7 28 8 29 9 12 10 13 11
REMARK SMILES IDX 14 12 16 13 15 14 19 15 20 16 23 17 17 18 18 19 21 20 22 21
REMARK SMILES IDX 8 22 7 23 31 24 6 25 5 26 3 27 4 28 2 29 1 30 26 31
REMARK H PARENT 26 32 26 33
REMARK Flexibility Score: inf
ROOT
ATOM      1  C   UNL     1      -0.551   0.393  -1.357  1.00  0.00     0.148 A 
ATOM      2  N   UNL     1      -1.681   0.116  -0.663  1.00  0.00    -0.161 NA
ATOM      3  N   UNL     1      -2.722   0.453  -1.418  1.00  0.00    -0.241 N 
ATOM      4  C   UNL     1      -2.258   0.943  -2.580  1.00  0.00     0.164 A 
ATOM      5  C   UNL     1      -0.895   0.925  -2.591  1.00  0.00     0.097 A 
ATOM      6  C   UNL     1      -0.208   1.399  -3.713  1.00  0.00     0.139 A 
ATOM      7  N   UNL     1      -0.955   1.864  -4.759  1.00  0.00    -0.219 NA
ATOM      8  C   UNL     1      -2.324   1.870  -4.721  1.00  0.00     0.226 A 
ATOM      9  N   UNL     1      -2.989   1.406  -3.622  1.00  0.00    -0.217 NA
ENDROOT
BRANCH   1  10
ATOM     10  C   UNL     1       0.768   0.161  -0.837  1.00  0.00    -0.039 C 
ATOM     11  C   UNL     1       1.872  -0.034  -0.396  1.00  0.00    -0.060 C 
BRANCH  11  12
ATOM     12  C   UNL     1       3.193  -0.264   0.127  1.00  0.00     0.032 A 
ATOM     13  C   UNL     1       5.592  -0.423  -0.225  1.00  0.00     0.123 A 
ATOM     14  C   UNL     1       4.303  -0.202  -0.722  1.00  0.00     0.064 A 
ATOM     15  C   UNL     1       5.763  -0.709   1.144  1.00  0.00     0.092 A 
ATOM     16  C   UNL     1       4.649  -0.771   2.005  1.00  0.00     0.123 A 
ATOM     17  C   UNL     1       3.369  -0.548   1.486  1.00  0.00     0.064 A 
BRANCH  13  18
ATOM     18  O   UNL     1       6.670  -0.350  -1.119  1.00  0.00    -0.497 OA
ATOM     19  C   UNL     1       8.032  -0.556  -0.757  1.00  0.00     0.278 C 
ENDBRANCH  13  18
BRANCH  16  20
ATOM     20  O   UNL     1       4.770  -1.051   3.375  1.00  0.00    -0.497 OA
ATOM     21  C   UNL     1       6.004  -1.301   4.040  1.00  0.00     0.278 C 
ENDBRANCH  16  20
ENDBRANCH  11  12
ENDBRANCH   1  10
BRANCH   3  22
ATOM     22  C   UNL     1      -4.125   0.317  -1.012  1.00  0.00     0.131 C 
ATOM     23  C   UNL     1      -4.481  -1.135  -0.678  1.00  0.00     0.051 C 
ATOM     24  C   UNL     1      -4.430   1.124   0.250  1.00  0.00     0.147 C 
ATOM     25  C   UNL     1      -5.453  -1.058   0.492  1.00  0.00     0.122 C 
ATOM     26  N   UNL     1      -5.270   0.266   1.069  1.00  0.00    -0.337 N 
BRANCH  26  27
ATOM     27  C   UNL     1      -6.069   0.774   2.152  1.00  0.00     0.246 C 
ATOM     28  O   UNL     1      -6.485   1.963   2.114  1.00  0.00    -0.270 OA
BRANCH  27  29
ATOM     29  C   UNL     1      -6.436  -0.059   3.310  1.00  0.00     0.063 C 
ATOM     30  C   UNL     1      -5.627  -0.994   3.802  1.00  0.00     0.014 C 
ENDBRANCH  27  29
ENDBRANCH  26  27
ENDBRANCH   3  22
BRANCH   6  31
ATOM     31  N   UNL     1       1.219   1.413  -3.799  1.00  0.00    -0.383 N 
ATOM     32  H   UNL     1       1.827   1.060  -3.032  1.00  0.00     0.158 HD
ATOM     33  H   UNL     1       1.682   1.786  -4.657  1.00  0.00     0.158 HD
ENDBRANCH   6  31
TORSDOF 8
