REMARK SMILES COc1ccc(CN2C3CC2CN(c2ccc(-c4cc(OCC(C)(C)O)cn5ncc(C#N)c45)cn2)C3)cn1
REMARK SMILES IDX 18 1 19 2 20 3 27 4 28 5 29 6 30 7 31 8 34 9 17 10 14 11
REMARK SMILES IDX 15 12 36 13 16 14 35 15 13 16 8 17 11 18 9 19 10 20 12 21
REMARK SMILES IDX 37 22 7 23 6 24 3 25 39 26 4 27 38 28 5 29 2 30 1 31 21 32
REMARK SMILES IDX 22 33 23 34 24 35 25 36 26 37 32 39 33 40
REMARK H PARENT 26 38
REMARK Flexibility Score: inf
ROOT
ATOM      1  C   UNL     1      -3.201   0.300  -0.270  1.00  0.00     0.014 A 
ATOM      2  C   UNL     1      -4.119   0.105   0.779  1.00  0.00     0.059 A 
ATOM      3  C   UNL     1      -5.441   0.582   0.688  1.00  0.00     0.138 A 
ATOM      4  C   UNL     1      -5.831   1.280  -0.476  1.00  0.00     0.159 A 
ATOM      5  N   UNL     1      -4.914   1.466  -1.459  1.00  0.00    -0.235 N 
ATOM      6  N   UNL     1      -5.117   2.121  -2.591  1.00  0.00    -0.175 NA
ATOM      7  C   UNL     1      -3.953   2.095  -3.277  1.00  0.00     0.155 A 
ATOM      8  C   UNL     1      -2.999   1.401  -2.549  1.00  0.00     0.098 A 
ATOM      9  C   UNL     1      -3.652   1.011  -1.393  1.00  0.00     0.092 A 
ENDROOT
BRANCH   1  10
ATOM     10  C   UNL     1      -1.845  -0.271  -0.179  1.00  0.00     0.003 A 
ATOM     11  C   UNL     1       0.702  -1.407  -0.011  1.00  0.00     0.128 A 
ATOM     12  C   UNL     1       0.356  -0.331   0.831  1.00  0.00     0.047 A 
ATOM     13  N   UNL     1      -0.226  -1.876  -0.894  1.00  0.00    -0.239 NA
ATOM     14  C   UNL     1      -0.921   0.229   0.746  1.00  0.00     0.014 A 
ATOM     15  C   UNL     1      -1.471  -1.344  -0.996  1.00  0.00     0.122 A 
BRANCH  11  16
ATOM     16  N   UNL     1       2.006  -2.026   0.044  1.00  0.00    -0.353 N 
ATOM     17  N   UNL     1       4.569  -2.444  -0.667  1.00  0.00    -0.289 NA
ATOM     18  C   UNL     1       3.748  -3.663  -0.626  1.00  0.00     0.078 C 
ATOM     19  C   UNL     1       4.349  -2.369   0.787  1.00  0.00     0.078 C 
ATOM     20  C   UNL     1       3.946  -3.838   0.877  1.00  0.00     0.042 C 
ATOM     21  C   UNL     1       2.292  -3.190  -0.846  1.00  0.00     0.137 C 
ATOM     22  C   UNL     1       3.064  -1.528   0.974  1.00  0.00     0.137 C 
BRANCH  17  23
ATOM     23  C   UNL     1       5.975  -2.750  -1.004  1.00  0.00     0.122 C 
BRANCH  23  24
ATOM     24  C   UNL     1       6.764  -1.474  -1.093  1.00  0.00    -0.015 A 
ATOM     25  C   UNL     1       8.157   0.933  -1.273  1.00  0.00     0.212 A 
ATOM     26  N   UNL     1       7.363   0.508  -2.297  1.00  0.00    -0.222 NA
ATOM     27  C   UNL     1       8.277   0.152  -0.121  1.00  0.00     0.069 A 
ATOM     28  C   UNL     1       6.673  -0.661  -2.234  1.00  0.00     0.120 A 
ATOM     29  C   UNL     1       7.574  -1.052  -0.029  1.00  0.00     0.012 A 
BRANCH  25  30
ATOM     30  O   UNL     1       8.851   2.144  -1.359  1.00  0.00    -0.481 OA
ATOM     31  C   UNL     1       8.773   2.994  -2.497  1.00  0.00     0.280 C 
ENDBRANCH  25  30
ENDBRANCH  23  24
ENDBRANCH  17  23
ENDBRANCH  11  16
ENDBRANCH   1  10
BRANCH   3  32
ATOM     32  O   UNL     1      -6.315   0.323   1.758  1.00  0.00    -0.489 OA
BRANCH  32  33
ATOM     33  C   UNL     1      -7.679   0.740   1.850  1.00  0.00     0.264 C 
BRANCH  33  34
ATOM     34  C   UNL     1      -7.804   2.162   2.446  1.00  0.00     0.093 C 
ATOM     35  C   UNL     1      -9.295   2.548   2.517  1.00  0.00     0.045 C 
ATOM     36  C   UNL     1      -7.191   2.190   3.859  1.00  0.00     0.045 C 
BRANCH  34  37
ATOM     37  O   UNL     1      -7.123   3.070   1.614  1.00  0.00    -0.387 OA
ATOM     38  H   UNL     1      -7.192   3.973   2.022  1.00  0.00     0.211 HD
ENDBRANCH  34  37
ENDBRANCH  33  34
ENDBRANCH  32  33
ENDBRANCH   3  32
BRANCH   8  39
ATOM     39  C   UNL     1      -1.622   1.210  -2.921  1.00  0.00     0.103 C 
ATOM     40  N   UNL     1      -0.516   1.056  -3.221  1.00  0.00    -0.192 NA
ENDBRANCH   8  39
TORSDOF 10
