REMARK SMILES CC[C@@H]1CN(C(=O)NCC(F)(F)F)C[C@@H]1c1cnc2cnc3[nH]ccc3n12
REMARK SMILES IDX 6 1 7 2 8 3 5 5 3 6 4 7 15 8 14 9 2 10 1 11 16 12 17 13
REMARK SMILES IDX 27 14 18 15 19 16 26 17 20 18 22 19 25 20 21 21 23 22 24 23
REMARK SMILES IDX 9 25 10 26 11 27 12 28 13 29
REMARK H PARENT 8 4 23 24
REMARK Flexibility Score: inf
ROOT
ATOM      1  C   UNL     1       3.029   0.905   1.244  1.00  0.00     0.317 C 
ATOM      2  O   UNL     1       3.105   1.550   2.326  1.00  0.00    -0.249 OA
ATOM      3  N   UNL     1       4.160   0.148   0.787  1.00  0.00    -0.329 N 
ATOM      4  H   UNL     1       4.104  -0.361  -0.123  1.00  0.00     0.165 HD
ENDROOT
BRANCH   1   5
ATOM      5  N   UNL     1       1.804   0.932   0.491  1.00  0.00    -0.324 N 
ATOM      6  C   UNL     1       0.211   0.671  -1.236  1.00  0.00     0.019 C 
ATOM      7  C   UNL     1       1.590   0.213  -0.756  1.00  0.00     0.125 C 
ATOM      8  C   UNL     1      -0.527   1.142   0.038  1.00  0.00     0.062 C 
ATOM      9  C   UNL     1       0.612   1.636   0.942  1.00  0.00     0.131 C 
BRANCH   6  10
ATOM     10  C   UNL     1      -0.543  -0.283  -2.203  1.00  0.00     0.003 C 
ATOM     11  C   UNL     1      -0.446  -1.782  -1.904  1.00  0.00     0.004 C 
ENDBRANCH   6  10
BRANCH   8  12
ATOM     12  C   UNL     1      -1.341   0.051   0.710  1.00  0.00     0.048 A 
ATOM     13  C   UNL     1      -0.851  -0.915   1.585  1.00  0.00     0.136 A 
ATOM     14  N   UNL     1      -2.662  -0.188   0.557  1.00  0.00    -0.292 N 
ATOM     15  N   UNL     1      -1.849  -1.734   1.989  1.00  0.00    -0.235 NA
ATOM     16  C   UNL     1      -2.929  -1.254   1.344  1.00  0.00     0.156 A 
ATOM     17  C   UNL     1      -3.665   0.381  -0.168  1.00  0.00     0.092 A 
ATOM     18  C   UNL     1      -4.233  -1.780   1.434  1.00  0.00     0.161 A 
ATOM     19  C   UNL     1      -4.933  -0.125  -0.084  1.00  0.00     0.154 A 
ATOM     20  C   UNL     1      -3.698   1.415  -1.086  1.00  0.00     0.048 A 
ATOM     21  N   UNL     1      -5.233  -1.196   0.703  1.00  0.00    -0.233 NA
ATOM     22  N   UNL     1      -5.780   0.532  -0.887  1.00  0.00    -0.345 N 
ATOM     23  C   UNL     1      -5.028   1.476  -1.503  1.00  0.00     0.086 A 
ATOM     24  H   UNL     1      -6.797   0.346  -1.026  1.00  0.00     0.168 HD
ENDBRANCH   8  12
ENDBRANCH   1   5
BRANCH   3  25
ATOM     25  C   UNL     1       5.384   0.061   1.586  1.00  0.00     0.233 C 
BRANCH  25  26
ATOM     26  C   UNL     1       6.457  -0.765   0.877  1.00  0.00     0.405 C 
ATOM     27  F   UNL     1       5.994  -2.049   0.644  1.00  0.00    -0.169 F 
ATOM     28  F   UNL     1       6.791  -0.172  -0.327  1.00  0.00    -0.169 F 
ATOM     29  F   UNL     1       7.586  -0.833   1.673  1.00  0.00    -0.169 F 
ENDBRANCH  25  26
ENDBRANCH   3  25
TORSDOF 5
