REMARK SMILES CO[C@]1(C(=O)N[C@@H](C)c2ccc(-n3cc(F)cn3)nc2)CC[C@H](c2nc(C)cc(Nc3cc(C)[nH]n3)n2)CC1
REMARK SMILES IDX 3 1 21 2 22 3 23 4 38 5 39 6 2 7 1 8 4 9 5 10 6 11 7 13 8 14
REMARK SMILES IDX 9 15 10 16 20 17 11 18 19 19 12 20 13 21 14 22 18 23 15 24
REMARK SMILES IDX 17 25 16 26 24 27 37 28 25 29 29 30 26 31 28 32 27 33 30 34
REMARK SMILES IDX 31 36 36 37 32 38 35 39 33 40 34 42
REMARK H PARENT 6 12 30 35 35 41
REMARK Flexibility Score: inf
ROOT
ATOM      1  C   UNL     1       0.598  -0.791   1.175  1.00  0.00     0.146 C 
ATOM      2  C   UNL     1      -0.428  -0.663   2.343  1.00  0.00     0.046 C 
ATOM      3  C   UNL     1      -1.806  -0.222   1.833  1.00  0.00     0.015 C 
ATOM      4  C   UNL     1      -1.717   1.123   1.088  1.00  0.00     0.058 C 
ATOM      5  C   UNL     1      -0.664   1.066  -0.042  1.00  0.00     0.015 C 
ATOM      6  C   UNL     1       0.699   0.590   0.484  1.00  0.00     0.046 C 
ENDROOT
BRANCH   1   7
ATOM      7  O   UNL     1       0.177  -1.732   0.182  1.00  0.00    -0.368 OA
ATOM      8  C   UNL     1      -0.047  -3.035   0.690  1.00  0.00     0.196 C 
ENDBRANCH   1   7
BRANCH   1   9
ATOM      9  C   UNL     1       1.990  -1.133   1.688  1.00  0.00     0.252 C 
ATOM     10  O   UNL     1       2.317  -0.837   2.870  1.00  0.00    -0.272 OA
ATOM     11  N   UNL     1       2.955  -1.735   0.806  1.00  0.00    -0.347 N 
ATOM     12  H   UNL     1       2.683  -1.908  -0.191  1.00  0.00     0.164 HD
BRANCH  11  13
ATOM     13  C   UNL     1       4.300  -2.137   1.237  1.00  0.00     0.111 C 
ATOM     14  C   UNL     1       4.603  -3.547   0.729  1.00  0.00     0.036 C 
BRANCH  13  15
ATOM     15  C   UNL     1       5.354  -1.160   0.751  1.00  0.00    -0.007 A 
ATOM     16  C   UNL     1       5.219  -0.452  -0.458  1.00  0.00     0.011 A 
ATOM     17  C   UNL     1       6.561  -1.031   1.462  1.00  0.00     0.119 A 
ATOM     18  C   UNL     1       6.250   0.377  -0.907  1.00  0.00     0.049 A 
ATOM     19  N   UNL     1       7.556  -0.230   0.997  1.00  0.00    -0.237 NA
ATOM     20  C   UNL     1       7.439   0.481  -0.159  1.00  0.00     0.153 A 
BRANCH  20  21
ATOM     21  N   UNL     1       8.546   1.292  -0.595  1.00  0.00    -0.220 N 
ATOM     22  C   UNL     1       8.591   2.117  -1.666  1.00  0.00     0.156 A 
ATOM     23  N   UNL     1       9.719   1.309   0.028  1.00  0.00    -0.172 NA
ATOM     24  C   UNL     1       9.848   2.678  -1.710  1.00  0.00     0.161 A 
ATOM     25  C   UNL     1      10.534   2.152  -0.636  1.00  0.00     0.174 A 
ATOM     26  F   UNL     1      10.317   3.558  -2.628  1.00  0.00    -0.204 F 
ENDBRANCH  20  21
ENDBRANCH  13  15
ENDBRANCH  11  13
ENDBRANCH   1   9
BRANCH   4  27
ATOM     27  C   UNL     1      -3.079   1.484   0.556  1.00  0.00     0.134 A 
ATOM     28  N   UNL     1      -3.525   0.949  -0.614  1.00  0.00    -0.215 NA
ATOM     29  N   UNL     1      -3.919   2.244   1.309  1.00  0.00    -0.238 NA
ATOM     30  C   UNL     1      -4.790   1.164  -1.059  1.00  0.00     0.135 A 
ATOM     31  C   UNL     1      -5.189   2.505   0.901  1.00  0.00     0.043 A 
ATOM     32  C   UNL     1      -5.654   1.967  -0.305  1.00  0.00     0.070 A 
ATOM     33  C   UNL     1      -6.079   3.357   1.744  1.00  0.00     0.067 C 
BRANCH  30  34
ATOM     34  N   UNL     1      -5.187   0.619  -2.325  1.00  0.00    -0.323 N 
ATOM     35  H   UNL     1      -4.488   0.624  -3.095  1.00  0.00     0.170 HD
BRANCH  34  36
ATOM     36  C   UNL     1      -6.471   0.032  -2.581  1.00  0.00     0.153 A 
ATOM     37  N   UNL     1      -6.897  -0.287  -3.820  1.00  0.00    -0.158 NA
ATOM     38  C   UNL     1      -7.398  -0.375  -1.631  1.00  0.00     0.071 A 
ATOM     39  N   UNL     1      -8.078  -0.873  -3.691  1.00  0.00    -0.281 N 
ATOM     40  C   UNL     1      -8.403  -0.947  -2.385  1.00  0.00     0.034 A 
ATOM     41  H   UNL     1      -8.636  -1.249  -4.486  1.00  0.00     0.190 HD
ATOM     42  C   UNL     1      -9.669  -1.544  -1.856  1.00  0.00     0.066 C 
ENDBRANCH  34  36
ENDBRANCH  30  34
ENDBRANCH   4  27
TORSDOF 8
