REMARK SMILES O=C(O)[C@H](CCc1ccccc1)N[C@H]1CCCN2CCC[C@@H](C(=O)O)N2C1=O
REMARK SMILES IDX 13 1 4 3 2 4 1 5 3 6 5 8 6 9 7 10 8 11 12 12 9 13 11 14
REMARK SMILES IDX 10 15 14 16 15 17 16 18 27 20 28 21 26 22 18 23 22 24 19 25
REMARK SMILES IDX 21 26 20 27 17 28 23 30 24 31 25 32
REMARK H PARENT 13 2 3 7 25 33
REMARK Flexibility Score: 90.00
ROOT
ATOM      1  N   UNL     1       0.162  -1.303  -0.828  1.00  0.00    -0.293 NA
ATOM      2  H   UNL     1       0.803  -2.098  -0.611  1.00  0.00     0.124 HD
ENDROOT
BRANCH   1   3
ATOM      3  C   UNL     1       0.950  -0.188  -1.396  1.00  0.00     0.165 C 
BRANCH   3   4
ATOM      4  C   UNL     1       1.919  -0.649  -2.462  1.00  0.00     0.320 C 
ATOM      5  O   UNL     1       2.155   0.101  -3.455  1.00  0.00    -0.251 OA
BRANCH   4   6
ATOM      6  O   UNL     1       2.593  -1.860  -2.338  1.00  0.00    -0.480 OA
ATOM      7  H   UNL     1       3.248  -2.162  -3.048  1.00  0.00     0.296 HD
ENDBRANCH   4   6
ENDBRANCH   3   4
BRANCH   3   8
ATOM      8  C   UNL     1       1.670   0.591  -0.276  1.00  0.00     0.036 C 
BRANCH   8   9
ATOM      9  C   UNL     1       2.559  -0.282   0.629  1.00  0.00     0.038 C 
BRANCH   9  10
ATOM     10  C   UNL     1       3.421   0.582   1.523  1.00  0.00    -0.048 A 
ATOM     11  C   UNL     1       3.053   0.834   2.856  1.00  0.00     0.004 A 
ATOM     12  C   UNL     1       4.596   1.159   1.010  1.00  0.00     0.004 A 
ATOM     13  C   UNL     1       3.858   1.644   3.669  1.00  0.00     0.000 A 
ATOM     14  C   UNL     1       5.397   1.968   1.827  1.00  0.00     0.000 A 
ATOM     15  C   UNL     1       5.030   2.207   3.155  1.00  0.00     0.000 A 
ENDBRANCH   9  10
ENDBRANCH   8   9
ENDBRANCH   3   8
ENDBRANCH   1   3
BRANCH   1  16
ATOM     16  C   UNL     1      -0.893  -1.780  -1.749  1.00  0.00     0.146 C 
BRANCH  16  17
ATOM     17  C   UNL     1      -1.462  -3.139  -1.292  1.00  0.00     0.030 C 
BRANCH  17  18
ATOM     18  C   UNL     1      -1.938  -3.170   0.172  1.00  0.00     0.020 CG0
ATOM     19  G   UNL     1      -3.025  -2.134   0.484  1.00  0.00     0.000 G0
ENDBRANCH  17  18
ENDBRANCH  16  17
BRANCH  16  20
ATOM     20  C   UNL     1      -2.011  -0.776  -1.863  1.00  0.00     0.254 C 
ATOM     21  O   UNL     1      -2.537  -0.592  -2.995  1.00  0.00    -0.272 OA
BRANCH  20  22
ATOM     22  N   UNL     1      -2.538  -0.117  -0.686  1.00  0.00    -0.260 N 
ATOM     23  N   UNL     1      -2.418  -0.786   0.568  1.00  0.00    -0.218 NA
ATOM     24  C   UNL     1      -3.121   1.246  -0.745  1.00  0.00     0.213 C 
ATOM     25  C   UNL     1      -3.045  -0.020   1.667  1.00  0.00     0.108 C 
ATOM     26  C   UNL     1      -2.478   2.108   0.351  1.00  0.00     0.040 C 
ATOM     27  C   UNL     1      -2.495   1.411   1.730  1.00  0.00     0.020 C 
BRANCH  23  28
ATOM     28  C   UNL     1      -3.025  -2.134   0.484  1.00  0.00     0.108 CG0
ATOM     29  G   UNL     1      -1.938  -3.170   0.172  1.00  0.00     0.000 G0
ENDBRANCH  23  28
BRANCH  24  30
ATOM     30  C   UNL     1      -2.960   1.938  -2.076  1.00  0.00     0.328 C 
ATOM     31  O   UNL     1      -3.969   2.134  -2.797  1.00  0.00    -0.250 OA
BRANCH  30  32
ATOM     32  O   UNL     1      -1.708   2.352  -2.518  1.00  0.00    -0.480 OA
ATOM     33  H   UNL     1      -1.590   2.803  -3.415  1.00  0.00     0.296 HD
ENDBRANCH  30  32
ENDBRANCH  24  30
ENDBRANCH  20  22
ENDBRANCH  16  20
ENDBRANCH   1  16
TORSDOF 9
