REMARK SMILES COC(=O)Nc1c(N)nc(-c2nn(Cc3ccccc3F)c3ncc(F)cc23)nc1N
REMARK SMILES IDX 11 1 12 2 13 3 22 4 28 5 27 6 25 7 26 8 24 9 23 10 10 11
REMARK SMILES IDX 6 12 7 13 30 14 9 15 29 16 5 17 3 18 4 19 2 21 1 22 8 23
REMARK SMILES IDX 31 26 14 29 15 30 16 31 20 32 17 33 19 34 21 35 18 36
REMARK H PARENT 5 20 8 24 8 25 31 27 31 28
REMARK Flexibility Score: inf
ROOT
ATOM      1  C   UNL     1      -0.733  -0.942  -0.379  1.00  0.00     0.139 A 
ATOM      2  N   UNL     1      -1.806  -0.387  -1.000  1.00  0.00    -0.166 NA
ATOM      3  N   UNL     1      -2.908  -0.897  -0.461  1.00  0.00    -0.242 N 
ATOM      4  C   UNL     1      -2.549  -1.755   0.507  1.00  0.00     0.159 A 
ATOM      5  C   UNL     1      -1.190  -1.822   0.593  1.00  0.00     0.053 A 
ATOM      6  C   UNL     1      -0.573  -2.643   1.536  1.00  0.00     0.055 A 
ATOM      7  C   UNL     1      -1.409  -3.391   2.384  1.00  0.00     0.142 A 
ATOM      8  F   UNL     1      -0.868  -4.208   3.322  1.00  0.00    -0.205 F 
ATOM      9  C   UNL     1      -2.814  -3.288   2.260  1.00  0.00     0.152 A 
ATOM     10  N   UNL     1      -3.370  -2.467   1.319  1.00  0.00    -0.234 NA
ENDROOT
BRANCH   1  11
ATOM     11  C   UNL     1       0.660  -0.607  -0.719  1.00  0.00     0.184 A 
ATOM     12  C   UNL     1       3.266   0.052  -1.366  1.00  0.00     0.129 A 
ATOM     13  C   UNL     1       2.986  -0.899  -0.365  1.00  0.00     0.153 A 
ATOM     14  C   UNL     1       2.182   0.639  -2.043  1.00  0.00     0.153 A 
ATOM     15  N   UNL     1       1.695  -1.197  -0.067  1.00  0.00    -0.207 NA
ATOM     16  N   UNL     1       0.913   0.298  -1.699  1.00  0.00    -0.207 NA
BRANCH  12  17
ATOM     17  N   UNL     1       4.616   0.402  -1.706  1.00  0.00    -0.285 N 
ATOM     18  C   UNL     1       5.486   1.075  -0.789  1.00  0.00     0.411 C 
ATOM     19  O   UNL     1       5.083   1.371   0.371  1.00  0.00    -0.224 OA
ATOM     20  H   UNL     1       4.929   0.294  -2.696  1.00  0.00     0.173 HD
BRANCH  18  21
ATOM     21  O   UNL     1       6.780   1.409  -1.195  1.00  0.00    -0.453 OA
ATOM     22  C   UNL     1       7.702   2.078  -0.344  1.00  0.00     0.284 C 
ENDBRANCH  18  21
ENDBRANCH  12  17
BRANCH  13  23
ATOM     23  N   UNL     1       4.032  -1.595   0.320  1.00  0.00    -0.382 N 
ATOM     24  H   UNL     1       5.034  -1.493   0.050  1.00  0.00     0.158 HD
ATOM     25  H   UNL     1       3.795  -2.273   1.078  1.00  0.00     0.158 HD
ENDBRANCH  13  23
BRANCH  14  26
ATOM     26  N   UNL     1       2.385   1.615  -3.069  1.00  0.00    -0.382 N 
ATOM     27  H   UNL     1       1.563   2.031  -3.561  1.00  0.00     0.158 HD
ATOM     28  H   UNL     1       3.337   1.952  -3.332  1.00  0.00     0.158 HD
ENDBRANCH  14  26
ENDBRANCH   1  11
BRANCH   3  29
ATOM     29  C   UNL     1      -4.261  -0.482  -0.818  1.00  0.00     0.185 C 
BRANCH  29  30
ATOM     30  C   UNL     1      -4.666   0.709   0.008  1.00  0.00     0.009 A 
ATOM     31  C   UNL     1      -4.241   1.994  -0.369  1.00  0.00     0.008 A 
ATOM     32  C   UNL     1      -5.413   0.551   1.191  1.00  0.00     0.128 A 
ATOM     33  C   UNL     1      -4.575   3.106   0.410  1.00  0.00     0.001 A 
ATOM     34  C   UNL     1      -5.745   1.668   1.966  1.00  0.00     0.039 A 
ATOM     35  F   UNL     1      -5.823  -0.678   1.595  1.00  0.00    -0.207 F 
ATOM     36  C   UNL     1      -5.328   2.943   1.575  1.00  0.00     0.003 A 
ENDBRANCH  29  30
ENDBRANCH   3  29
TORSDOF 7
