REMARK SMILES CS(=O)(=O)c1ccc(Oc2cc(F)cc(C#N)c2)c2c1[C@H](O)[C@H](F)[C@@H]2F
REMARK SMILES IDX 9 1 8 2 5 3 6 4 20 5 7 6 19 7 21 8 25 9 23 10 26 11 24 12
REMARK SMILES IDX 2 13 1 14 3 15 4 16 22 17 10 19 18 20 11 21 15 22 12 23
REMARK SMILES IDX 14 24 13 25 16 26 17 27
REMARK H PARENT 22 18
REMARK Flexibility Score: inf
ROOT
ATOM      1  O   UNL     1       1.736  -1.192  -0.041  1.00  0.00    -0.457 OA
ENDROOT
BRANCH   1   2
ATOM      2  C   UNL     1       0.481  -0.594  -0.230  1.00  0.00     0.134 A 
ATOM      3  C   UNL     1      -2.094   0.529  -0.602  1.00  0.00     0.073 A 
ATOM      4  C   UNL     1      -0.950   1.174  -1.111  1.00  0.00     0.024 A 
ATOM      5  C   UNL     1      -1.919  -0.689   0.081  1.00  0.00     0.012 A 
ATOM      6  C   UNL     1       0.325   0.616  -0.932  1.00  0.00     0.049 A 
ATOM      7  C   UNL     1      -0.665  -1.235   0.248  1.00  0.00     0.039 A 
ATOM      8  C   UNL     1      -2.966  -1.536   0.717  1.00  0.00     0.184 C 
ATOM      9  C   UNL     1      -0.706  -2.512   1.002  1.00  0.00     0.238 C 
ATOM     10  C   UNL     1      -2.209  -2.829   1.097  1.00  0.00     0.238 C 
ATOM     11  F   UNL     1      -0.158  -2.325   2.260  1.00  0.00    -0.239 F 
ATOM     12  F   UNL     1      -2.551  -3.278   2.363  1.00  0.00    -0.241 F 
BRANCH   3  13
ATOM     13  S   UNL     1      -3.703   1.229  -0.829  1.00  0.00     0.175 S 
ATOM     14  C   UNL     1      -3.659   2.727  -1.793  1.00  0.00     0.163 C 
ATOM     15  O   UNL     1      -4.579   0.240  -1.546  1.00  0.00    -0.224 OA
ATOM     16  O   UNL     1      -4.302   1.550   0.511  1.00  0.00    -0.224 OA
ENDBRANCH   3  13
BRANCH   8  17
ATOM     17  O   UNL     1      -3.458  -0.888   1.860  1.00  0.00    -0.385 OA
ATOM     18  H   UNL     1      -4.321  -1.324   2.083  1.00  0.00     0.211 HD
ENDBRANCH   8  17
ENDBRANCH   1   2
BRANCH   1  19
ATOM     19  C   UNL     1       2.950  -0.504   0.101  1.00  0.00     0.131 A 
ATOM     20  C   UNL     1       3.019   0.767   0.701  1.00  0.00     0.066 A 
ATOM     21  C   UNL     1       4.129  -1.126  -0.326  1.00  0.00     0.086 A 
ATOM     22  C   UNL     1       4.253   1.416   0.838  1.00  0.00     0.059 A 
ATOM     23  C   UNL     1       5.361  -0.479  -0.189  1.00  0.00     0.128 A 
ATOM     24  C   UNL     1       5.424   0.793   0.388  1.00  0.00     0.059 A 
ATOM     25  F   UNL     1       6.496  -1.086  -0.615  1.00  0.00    -0.207 F 
BRANCH  22  26
ATOM     26  C   UNL     1       4.319   2.719   1.447  1.00  0.00     0.099 C 
ATOM     27  N   UNL     1       4.372   3.766   1.937  1.00  0.00    -0.192 NA
ENDBRANCH  22  26
ENDBRANCH   1  19
TORSDOF 5
