REMARK SMILES CN1CCN(c2ccc(Nc3ncc4cc5n(c4n3)C3(CCCCC3)CNC5=O)nc2)CC1
REMARK SMILES IDX 6 1 31 2 30 3 9 4 8 5 7 6 5 7 1 8 2 9 3 10 33 11 4 12 32 13
REMARK SMILES IDX 10 14 11 16 19 17 12 18 18 19 13 20 14 21 17 22 15 23 16 24
REMARK SMILES IDX 20 25 28 26 21 27 26 28 25 29 27 30 29 31 22 32 24 33 23 35
REMARK H PARENT 10 15 27 34
REMARK Flexibility Score: inf
ROOT
ATOM      1  C   UNL     1       4.271   0.183  -0.596  1.00  0.00     0.055 A 
ATOM      2  C   UNL     1       3.527   0.094  -1.783  1.00  0.00     0.139 A 
ATOM      3  N   UNL     1       2.168   0.125  -1.743  1.00  0.00    -0.237 NA
ATOM      4  C   UNL     1       1.479   0.225  -0.574  1.00  0.00     0.132 A 
ATOM      5  C   UNL     1       2.187   0.339   0.633  1.00  0.00     0.049 A 
ATOM      6  C   UNL     1       3.582   0.309   0.618  1.00  0.00     0.031 A 
ENDROOT
BRANCH   1   7
ATOM      7  N   UNL     1       5.710   0.139  -0.618  1.00  0.00    -0.368 N 
ATOM      8  C   UNL     1       9.234   0.550  -1.334  1.00  0.00     0.105 C 
ATOM      9  N   UNL     1       8.524  -0.207  -0.289  1.00  0.00    -0.303 NA
ATOM     10  C   UNL     1       7.693  -1.296  -0.844  1.00  0.00     0.105 C 
ATOM     11  C   UNL     1       7.760   0.665   0.627  1.00  0.00     0.105 C 
ATOM     12  C   UNL     1       6.410  -0.783  -1.515  1.00  0.00     0.132 C 
ATOM     13  C   UNL     1       6.487   1.227  -0.017  1.00  0.00     0.132 C 
ENDBRANCH   1   7
BRANCH   4  14
ATOM     14  N   UNL     1       0.045   0.273  -0.613  1.00  0.00    -0.309 N 
ATOM     15  H   UNL     1      -0.404   0.653  -1.477  1.00  0.00     0.171 HD
BRANCH  14  16
ATOM     16  C   UNL     1      -0.814  -0.293   0.387  1.00  0.00     0.230 A 
ATOM     17  N   UNL     1      -2.154  -0.029   0.346  1.00  0.00    -0.194 NA
ATOM     18  N   UNL     1      -0.314  -1.146   1.340  1.00  0.00    -0.221 NA
ATOM     19  C   UNL     1      -2.964  -0.579   1.283  1.00  0.00     0.146 A 
ATOM     20  C   UNL     1      -1.122  -1.728   2.272  1.00  0.00     0.127 A 
ATOM     21  C   UNL     1      -2.476  -1.431   2.231  1.00  0.00     0.038 A 
ATOM     22  N   UNL     1      -4.311  -0.476   1.362  1.00  0.00    -0.313 N 
ATOM     23  C   UNL     1      -3.540  -1.933   2.942  1.00  0.00     0.045 A 
ATOM     24  C   UNL     1      -4.652  -1.336   2.356  1.00  0.00     0.109 A 
ATOM     25  C   UNL     1      -5.288   0.160   0.438  1.00  0.00     0.064 C 
ATOM     26  C   UNL     1      -6.050  -1.663   2.614  1.00  0.00     0.268 C 
ATOM     27  C   UNL     1      -5.407  -0.727  -0.831  1.00  0.00     0.031 C 
ATOM     28  C   UNL     1      -6.672   0.276   1.172  1.00  0.00     0.145 C 
ATOM     29  C   UNL     1      -4.816   1.591   0.038  1.00  0.00     0.031 C 
ATOM     30  N   UNL     1      -7.036  -0.966   1.856  1.00  0.00    -0.348 N 
ATOM     31  O   UNL     1      -6.380  -2.558   3.437  1.00  0.00    -0.268 OA
ATOM     32  C   UNL     1      -6.237  -0.085  -1.955  1.00  0.00     0.002 C 
ATOM     33  C   UNL     1      -5.690   2.216  -1.059  1.00  0.00     0.002 C 
ATOM     34  H   UNL     1      -8.029  -1.291   1.860  1.00  0.00     0.163 HD
ATOM     35  C   UNL     1      -5.729   1.318  -2.299  1.00  0.00     0.000 C 
ENDBRANCH  14  16
ENDBRANCH   4  14
TORSDOF 3
