REMARK SMILES Cc1nn(C)cc1S(=O)(=O)NC(=O)c1ccc(-n2ccc(OCC(C)(C)C(F)(F)F)n2)nc1N1C[C@@H](C)CC1(C)C
REMARK SMILES IDX 18 1 19 2 20 3 21 4 31 5 17 6 33 7 32 8 14 9 15 10 16 11
REMARK SMILES IDX 34 12 37 13 36 14 35 15 38 16 39 17 40 18 41 19 12 20 13 21
REMARK SMILES IDX 11 22 8 24 9 25 10 26 7 27 6 28 2 29 4 30 3 31 1 32 5 33
REMARK SMILES IDX 22 34 23 35 24 36 25 37 26 38 27 39 28 40 29 41 30 42
REMARK H PARENT 11 23
REMARK Flexibility Score: inf
ROOT
ATOM      1  N   UNL     1       2.851  -0.219   1.154  1.00  0.00    -0.219 N 
ATOM      2  C   UNL     1       3.655  -1.145   1.709  1.00  0.00     0.121 A 
ATOM      3  C   UNL     1       4.965  -0.771   1.501  1.00  0.00     0.090 A 
ATOM      4  C   UNL     1       4.867   0.400   0.782  1.00  0.00     0.233 A 
ATOM      5  N   UNL     1       3.576   0.728   0.583  1.00  0.00    -0.128 NA
ENDROOT
BRANCH   1   6
ATOM      6  C   UNL     1       1.423  -0.272   1.109  1.00  0.00     0.155 A 
ATOM      7  C   UNL     1      -0.554  -1.581   0.853  1.00  0.00     0.144 A 
ATOM      8  N   UNL     1       0.800  -1.465   0.925  1.00  0.00    -0.211 NA
ATOM      9  C   UNL     1      -1.365  -0.436   1.028  1.00  0.00     0.083 A 
ATOM     10  C   UNL     1      -0.732   0.805   1.204  1.00  0.00     0.021 A 
ATOM     11  C   UNL     1       0.660   0.895   1.223  1.00  0.00     0.050 A 
BRANCH   7  12
ATOM     12  N   UNL     1      -1.115  -2.862   0.527  1.00  0.00    -0.350 N 
ATOM     13  C   UNL     1      -1.709  -6.420   1.280  1.00  0.00     0.009 C 
ATOM     14  C   UNL     1      -0.991  -5.234   0.629  1.00  0.00     0.008 C 
ATOM     15  C   UNL     1      -1.046  -3.963   1.477  1.00  0.00     0.122 C 
ATOM     16  C   UNL     1      -1.600  -4.833  -0.715  1.00  0.00     0.033 C 
ATOM     17  C   UNL     1      -1.293  -3.329  -0.853  1.00  0.00     0.036 C 
ATOM     18  C   UNL     1       0.003  -3.126  -1.669  1.00  0.00     0.034 C 
ATOM     19  C   UNL     1      -2.460  -2.591  -1.535  1.00  0.00     0.034 C 
ENDBRANCH   7  12
BRANCH   9  20
ATOM     20  C   UNL     1      -2.845  -0.529   1.088  1.00  0.00     0.268 C 
ATOM     21  O   UNL     1      -3.388  -1.585   1.510  1.00  0.00    -0.268 OA
ATOM     22  N   UNL     1      -3.667   0.572   0.685  1.00  0.00    -0.245 N 
ATOM     23  H   UNL     1      -3.248   1.391   0.192  1.00  0.00     0.183 HD
BRANCH  22  24
ATOM     24  S   UNL     1      -5.380   0.561   0.936  1.00  0.00     0.267 S 
ATOM     25  O   UNL     1      -5.666   0.396   2.401  1.00  0.00    -0.201 OA
ATOM     26  O   UNL     1      -6.005  -0.571   0.172  1.00  0.00    -0.201 OA
BRANCH  24  27
ATOM     27  C   UNL     1      -6.068   2.084   0.389  1.00  0.00     0.128 A 
ATOM     28  C   UNL     1      -6.809   2.969   1.139  1.00  0.00     0.131 A 
ATOM     29  C   UNL     1      -5.972   2.663  -0.865  1.00  0.00     0.080 A 
ATOM     30  N   UNL     1      -7.116   4.020   0.355  1.00  0.00    -0.274 N 
ATOM     31  N   UNL     1      -6.615   3.848  -0.859  1.00  0.00    -0.177 NA
ATOM     32  C   UNL     1      -5.205   2.143  -2.037  1.00  0.00     0.070 C 
ATOM     33  C   UNL     1      -7.900   5.179   0.756  1.00  0.00     0.173 C 
ENDBRANCH  24  27
ENDBRANCH  22  24
ENDBRANCH   9  20
ENDBRANCH   1   6
BRANCH   4  34
ATOM     34  O   UNL     1       5.954   1.125   0.294  1.00  0.00    -0.476 OA
BRANCH  34  35
ATOM     35  C   UNL     1       5.802   2.242  -0.576  1.00  0.00     0.247 C 
BRANCH  35  36
ATOM     36  C   UNL     1       7.184   2.771  -1.034  1.00  0.00     0.094 C 
ATOM     37  C   UNL     1       7.946   3.331   0.187  1.00  0.00     0.024 C 
ATOM     38  C   UNL     1       8.005   1.619  -1.661  1.00  0.00     0.024 C 
BRANCH  36  39
ATOM     39  C   UNL     1       6.989   3.894  -2.086  1.00  0.00     0.397 C 
ATOM     40  F   UNL     1       8.211   4.412  -2.479  1.00  0.00    -0.170 F 
ATOM     41  F   UNL     1       6.228   4.927  -1.561  1.00  0.00    -0.170 F 
ATOM     42  F   UNL     1       6.342   3.401  -3.208  1.00  0.00    -0.170 F 
ENDBRANCH  36  39
ENDBRANCH  35  36
ENDBRANCH  34  35
ENDBRANCH   4  34
TORSDOF 9
