REMARK SMILES C=C(F)C(=O)N1CCN(c2nc(OC[C@@H]3CCCN3C)nc3c2CCN(c2cccc4cccc(Cl)c24)C3)C[C@@H]1CC#N
REMARK SMILES IDX 12 1 21 2 22 3 23 4 24 5 25 6 26 7 38 8 10 9 11 10 13 11
REMARK SMILES IDX 14 12 15 13 16 14 19 15 17 16 18 17 20 18 9 19 8 20 39 21
REMARK SMILES IDX 7 22 40 23 6 24 41 25 42 26 43 27 4 28 5 29 2 30 3 31 1 32
REMARK SMILES IDX 27 33 28 34 37 35 29 36 31 37 35 38 30 39 32 40 36 41 34 42
REMARK SMILES IDX 33 43
REMARK H PARENT
REMARK Flexibility Score: inf
ROOT
ATOM      1  C   UNL     1       1.700  -1.354  -0.244  1.00  0.00     0.318 A 
ATOM      2  N   UNL     1       0.693  -2.218   0.039  1.00  0.00    -0.198 NA
ATOM      3  C   UNL     1      -0.515  -1.783   0.483  1.00  0.00     0.072 A 
ATOM      4  C   UNL     1      -0.730  -0.403   0.677  1.00  0.00     0.020 A 
ATOM      5  C   UNL     1      -2.051   0.117   1.194  1.00  0.00     0.063 C 
ATOM      6  C   UNL     1      -2.810  -0.949   1.980  1.00  0.00     0.122 C 
ATOM      7  N   UNL     1      -2.839  -2.203   1.225  1.00  0.00    -0.365 N 
ATOM      8  C   UNL     1      -1.565  -2.811   0.819  1.00  0.00     0.173 C 
ATOM      9  C   UNL     1       0.313   0.479   0.336  1.00  0.00     0.139 A 
ATOM     10  N   UNL     1       1.501  -0.018  -0.097  1.00  0.00    -0.178 NA
ENDROOT
BRANCH   1  11
ATOM     11  O   UNL     1       2.933  -1.851  -0.674  1.00  0.00    -0.462 OA
BRANCH  11  12
ATOM     12  C   UNL     1       4.038  -1.004  -0.977  1.00  0.00     0.252 C 
BRANCH  12  13
ATOM     13  C   UNL     1       5.271  -1.844  -1.336  1.00  0.00     0.094 C 
ATOM     14  C   UNL     1       5.775  -2.643  -0.133  1.00  0.00     0.024 C 
ATOM     15  N   UNL     1       6.358  -0.935  -1.751  1.00  0.00    -0.300 NA
ATOM     16  C   UNL     1       6.899  -1.811   0.431  1.00  0.00     0.017 C 
ATOM     17  C   UNL     1       7.452  -1.077  -0.774  1.00  0.00     0.084 C 
ATOM     18  C   UNL     1       6.821  -1.219  -3.121  1.00  0.00     0.105 C 
ENDBRANCH  12  13
ENDBRANCH  11  12
ENDBRANCH   1  11
BRANCH   9  19
ATOM     19  N   UNL     1       0.154   1.898   0.465  1.00  0.00    -0.352 N 
ATOM     20  C   UNL     1       1.107   2.643   1.294  1.00  0.00     0.139 C 
ATOM     21  C   UNL     1      -0.607   2.626  -0.558  1.00  0.00     0.144 C 
ATOM     22  C   UNL     1       0.423   3.867   1.906  1.00  0.00     0.142 C 
ATOM     23  C   UNL     1      -1.291   3.850   0.071  1.00  0.00     0.119 C 
ATOM     24  N   UNL     1      -0.289   4.602   0.857  1.00  0.00    -0.329 N 
BRANCH  23  25
ATOM     25  C   UNL     1      -2.014   4.687  -1.006  1.00  0.00     0.147 C 
BRANCH  25  26
ATOM     26  C   UNL     1      -2.857   5.725  -0.400  1.00  0.00     0.064 C 
ATOM     27  N   UNL     1      -3.521   6.543   0.080  1.00  0.00    -0.198 NA
ENDBRANCH  25  26
ENDBRANCH  23  25
BRANCH  24  28
ATOM     28  C   UNL     1       0.104   5.955   0.577  1.00  0.00     0.282 C 
ATOM     29  O   UNL     1      -0.218   6.866   1.388  1.00  0.00    -0.266 OA
BRANCH  28  30
ATOM     30  C   UNL     1       0.943   6.259  -0.599  1.00  0.00     0.180 C 
ATOM     31  F   UNL     1       1.388   5.242  -1.378  1.00  0.00    -0.202 F 
ATOM     32  C   UNL     1       1.272   7.508  -0.924  1.00  0.00     0.057 C 
ENDBRANCH  28  30
ENDBRANCH  24  28
ENDBRANCH   9  19
BRANCH   7  33
ATOM     33  C   UNL     1      -3.962  -3.078   1.409  1.00  0.00     0.046 A 
ATOM     34  C   UNL     1      -4.094  -3.709   2.656  1.00  0.00     0.026 A 
ATOM     35  C   UNL     1      -4.925  -3.322   0.383  1.00  0.00     0.024 A 
ATOM     36  C   UNL     1      -5.153  -4.572   2.915  1.00  0.00     0.003 A 
ATOM     37  C   UNL     1      -6.002  -4.214   0.673  1.00  0.00    -0.015 A 
ATOM     38  C   UNL     1      -4.882  -2.725  -0.913  1.00  0.00     0.050 A 
ATOM     39  C   UNL     1      -6.103  -4.824   1.932  1.00  0.00     0.009 A 
ATOM     40  C   UNL     1      -6.977  -4.490  -0.296  1.00  0.00     0.009 A 
ATOM     41  Cl  UNL     1      -3.647  -1.594  -1.457  1.00  0.00    -0.084 Cl
ATOM     42  C   UNL     1      -5.874  -3.023  -1.855  1.00  0.00     0.021 A 
ATOM     43  C   UNL     1      -6.912  -3.897  -1.550  1.00  0.00     0.002 A 
ENDBRANCH   7  33
TORSDOF 9
