REMARK SMILES C[C@@]1(O)CC[C@H]2[C@H](CC[C@@H]3[C@@H]2CC[C@]2(C)[C@@H](C(=O)Cn4cc(C#N)cn4)CC[C@@H]32)C1
REMARK SMILES IDX 19 1 17 2 18 3 16 4 27 5 14 6 28 7 29 8 13 9 15 10 10 11
REMARK SMILES IDX 12 12 9 13 11 14 8 15 6 16 7 17 5 18 30 19 4 20 2 21 1 22
REMARK SMILES IDX 3 23 20 25 21 26 26 27 22 28 25 29 23 30 24 31
REMARK H PARENT 3 24
REMARK Flexibility Score: inf
ROOT
ATOM      1  C   UNL     1       4.606   1.526   0.795  1.00  0.00     0.219 C 
ENDROOT
BRANCH   1   2
ATOM      2  C   UNL     1       4.026   0.142   0.865  1.00  0.00     0.157 C 
ATOM      3  O   UNL     1       4.504  -0.663   1.652  1.00  0.00    -0.297 OA
BRANCH   2   4
ATOM      4  C   UNL     1       2.866  -0.250  -0.032  1.00  0.00     0.064 C 
ATOM      5  C   UNL     1       2.946  -1.697  -0.578  1.00  0.00     0.012 C 
ATOM      6  C   UNL     1       1.468  -0.162   0.621  1.00  0.00    -0.020 C 
ATOM      7  C   UNL     1       1.493  -2.198  -0.689  1.00  0.00     0.005 C 
ATOM      8  C   UNL     1       0.649  -0.963  -0.399  1.00  0.00    -0.001 C 
ATOM      9  C   UNL     1       0.876   1.261   0.680  1.00  0.00     0.008 C 
ATOM     10  C   UNL     1       1.489  -0.799   2.049  1.00  0.00     0.012 C 
ATOM     11  C   UNL     1      -0.826  -1.142   0.015  1.00  0.00    -0.004 C 
ATOM     12  C   UNL     1      -0.622   1.227   1.065  1.00  0.00     0.005 C 
ATOM     13  C   UNL     1      -1.590  -1.998  -1.028  1.00  0.00     0.004 C 
ATOM     14  C   UNL     1      -1.483   0.267   0.180  1.00  0.00    -0.004 C 
ATOM     15  C   UNL     1      -3.087  -1.665  -1.120  1.00  0.00     0.004 C 
ATOM     16  C   UNL     1      -2.933   0.118   0.750  1.00  0.00    -0.004 C 
ATOM     17  C   UNL     1      -3.656  -1.170   0.226  1.00  0.00    -0.005 C 
ATOM     18  C   UNL     1      -3.786   1.404   0.549  1.00  0.00     0.007 C 
ATOM     19  C   UNL     1      -5.187  -0.986   0.163  1.00  0.00     0.038 C 
ATOM     20  C   UNL     1      -4.609   1.360  -0.742  1.00  0.00     0.035 C 
ATOM     21  C   UNL     1      -5.638   0.193  -0.755  1.00  0.00     0.062 C 
ATOM     22  C   UNL     1      -7.012   0.713  -0.278  1.00  0.00     0.042 C 
BRANCH  21  23
ATOM     23  O   UNL     1      -5.759  -0.256  -2.086  1.00  0.00    -0.390 OA
ATOM     24  H   UNL     1      -6.452  -0.968  -2.113  1.00  0.00     0.211 HD
ENDBRANCH  21  23
ENDBRANCH   2   4
ENDBRANCH   1   2
BRANCH   1  25
ATOM     25  N   UNL     1       5.858   1.503   0.048  1.00  0.00    -0.264 N 
ATOM     26  C   UNL     1       7.091   1.367   0.573  1.00  0.00     0.128 A 
ATOM     27  N   UNL     1       5.928   1.551  -1.275  1.00  0.00    -0.180 NA
ATOM     28  C   UNL     1       7.986   1.345  -0.471  1.00  0.00     0.090 A 
ATOM     29  C   UNL     1       7.228   1.461  -1.618  1.00  0.00     0.154 A 
BRANCH  28  30
ATOM     30  C   UNL     1       9.414   1.220  -0.386  1.00  0.00     0.102 C 
ATOM     31  N   UNL     1      10.565   1.120  -0.318  1.00  0.00    -0.192 NA
ENDBRANCH  28  30
ENDBRANCH   1  25
TORSDOF 5
