REMARK SMILES CC(C)NC(=O)COc1cccc(-c2nc(Nc3ccc4[nH]ncc4c3)c3ccccc3n2)c1
REMARK SMILES IDX 9 1 10 2 11 3 12 4 13 5 34 6 8 7 7 8 5 9 4 10 6 12 2 13 1 14
REMARK SMILES IDX 3 15 14 16 33 17 15 18 32 19 16 20 27 21 31 22 28 23 30 24
REMARK SMILES IDX 29 25 17 26 18 28 19 29 26 30 20 31 25 32 21 33 24 34 22 35
REMARK SMILES IDX 23 36
REMARK H PARENT 4 11 17 27 22 37
REMARK Flexibility Score: inf
ROOT
ATOM      1  C   UNL     1      -2.118   1.541  -0.843  1.00  0.00     0.120 A 
ATOM      2  C   UNL     1      -1.599   2.665  -1.492  1.00  0.00     0.046 A 
ATOM      3  C   UNL     1      -0.221   2.874  -1.554  1.00  0.00     0.005 A 
ATOM      4  C   UNL     1       0.655   1.961  -0.964  1.00  0.00     0.012 A 
ATOM      5  C   UNL     1       0.160   0.822  -0.302  1.00  0.00     0.023 A 
ATOM      6  C   UNL     1      -1.233   0.618  -0.249  1.00  0.00     0.058 A 
ENDROOT
BRANCH   1   7
ATOM      7  O   UNL     1      -3.511   1.378  -0.808  1.00  0.00    -0.484 OA
BRANCH   7   8
ATOM      8  C   UNL     1      -4.181   0.274  -0.202  1.00  0.00     0.329 C 
BRANCH   8   9
ATOM      9  C   UNL     1      -5.663   0.426  -0.349  1.00  0.00     0.258 C 
ATOM     10  N   UNL     1      -6.544  -0.260   0.553  1.00  0.00    -0.351 N 
ATOM     11  H   UNL     1      -6.120  -0.828   1.323  1.00  0.00     0.163 HD
ATOM     12  O   UNL     1      -6.132   1.121  -1.292  1.00  0.00    -0.271 OA
BRANCH  10  13
ATOM     13  C   UNL     1      -8.004  -0.175   0.441  1.00  0.00     0.075 C 
ATOM     14  C   UNL     1      -8.662  -0.581   1.763  1.00  0.00     0.030 C 
ATOM     15  C   UNL     1      -8.495  -1.073  -0.698  1.00  0.00     0.030 C 
ENDBRANCH  10  13
ENDBRANCH   8   9
ENDBRANCH   7   8
ENDBRANCH   1   7
BRANCH   5  16
ATOM     16  C   UNL     1       1.091  -0.145   0.329  1.00  0.00     0.162 A 
ATOM     17  N   UNL     1       0.614  -1.259   0.945  1.00  0.00    -0.228 NA
ATOM     18  N   UNL     1       2.432   0.078   0.302  1.00  0.00    -0.210 NA
ATOM     19  C   UNL     1       1.448  -2.159   1.525  1.00  0.00     0.076 A 
ATOM     20  C   UNL     1       3.325  -0.784   0.860  1.00  0.00     0.142 A 
ATOM     21  C   UNL     1       2.846  -1.950   1.496  1.00  0.00     0.043 A 
ATOM     22  C   UNL     1       0.919  -3.297   2.145  1.00  0.00     0.029 A 
ATOM     23  C   UNL     1       3.696  -2.915   2.073  1.00  0.00     0.014 A 
ATOM     24  C   UNL     1       1.772  -4.236   2.729  1.00  0.00     0.002 A 
ATOM     25  C   UNL     1       3.155  -4.048   2.689  1.00  0.00     0.001 A 
BRANCH  20  26
ATOM     26  N   UNL     1       4.725  -0.456   0.837  1.00  0.00    -0.340 N 
ATOM     27  H   UNL     1       5.305  -0.692   1.673  1.00  0.00     0.168 HD
BRANCH  26  28
ATOM     28  C   UNL     1       5.327   0.362  -0.182  1.00  0.00     0.040 A 
ATOM     29  C   UNL     1       4.827   0.365  -1.515  1.00  0.00     0.028 A 
ATOM     30  C   UNL     1       6.461   1.143   0.140  1.00  0.00     0.038 A 
ATOM     31  C   UNL     1       5.428   1.163  -2.507  1.00  0.00     0.030 A 
ATOM     32  C   UNL     1       7.026   1.915  -0.870  1.00  0.00     0.022 A 
ATOM     33  C   UNL     1       6.529   1.929  -2.138  1.00  0.00     0.065 A 
ATOM     34  C   UNL     1       8.103   2.774  -0.886  1.00  0.00     0.143 A 
ATOM     35  N   UNL     1       7.266   2.754  -2.897  1.00  0.00    -0.278 N 
ATOM     36  N   UNL     1       8.227   3.273  -2.140  1.00  0.00    -0.183 NA
ATOM     37  H   UNL     1       7.128   2.966  -3.910  1.00  0.00     0.190 HD
ENDBRANCH  26  28
ENDBRANCH  20  26
ENDBRANCH   5  16
TORSDOF 7
