REMARK SMILES Nc1nc(=O)c2c([nH]1)N[C@@H]1O[C@@H]3COP(=O)(O)O[C@@H]3C(O)(O)[C@@H]1N2
REMARK SMILES IDX 12 1 13 2 14 3 15 4 16 5 18 6 19 7 20 8 23 9 24 10 6 11 7 12
REMARK SMILES IDX 8 13 2 14 3 15 4 16 5 17 9 18 10 19 11 20 21 24 22 26 17 28
REMARK SMILES IDX 1 30
REMARK H PARENT 24 21 8 22 9 23 21 25 22 27 17 29 1 31 1 32
REMARK Flexibility Score: inf
ROOT
ATOM      1  C   UNL     1      -2.171  -0.558   1.277  1.00  0.00     0.182 C 
ATOM      2  C   UNL     1      -3.289  -1.615   1.230  1.00  0.00     0.208 C 
ATOM      3  O   UNL     1      -4.554  -1.022   1.060  1.00  0.00    -0.284 OA
ATOM      4  P   UNL     1      -4.594  -0.382  -0.517  1.00  0.00     0.472 P 
ATOM      5  O   UNL     1      -5.448   0.866  -0.538  1.00  0.00    -0.228 OA
ATOM      6  O   UNL     1      -3.003   0.000  -0.991  1.00  0.00    -0.275 OA
ATOM      7  C   UNL     1      -2.320   0.507   0.140  1.00  0.00     0.223 C 
ATOM      8  C   UNL     1      -0.935   1.065  -0.295  1.00  0.00     0.218 C 
ATOM      9  C   UNL     1      -0.018   1.095   0.948  1.00  0.00     0.192 C 
ATOM     10  N   UNL     1       1.250   1.776   0.668  1.00  0.00    -0.366 N 
ATOM     11  C   UNL     1       2.443   1.072   0.318  1.00  0.00     0.144 A 
ATOM     12  C   UNL     1       2.512  -0.305   0.507  1.00  0.00     0.137 A 
ATOM     13  N   UNL     1       3.649  -0.980   0.178  1.00  0.00    -0.311 N 
ATOM     14  C   UNL     1       4.729  -0.324  -0.331  1.00  0.00     0.202 A 
ATOM     15  N   UNL     1       4.680   1.022  -0.513  1.00  0.00    -0.173 NA
ATOM     16  C   UNL     1       3.566   1.732  -0.200  1.00  0.00     0.300 A 
ATOM     17  O   UNL     1       3.553   2.978  -0.383  1.00  0.00    -0.265 OA
ATOM     18  N   UNL     1       1.390  -1.005   1.054  1.00  0.00    -0.343 N 
ATOM     19  C   UNL     1       0.162  -0.354   1.522  1.00  0.00     0.242 C 
ATOM     20  O   UNL     1      -0.922  -1.215   1.187  1.00  0.00    -0.348 OA
ATOM     21  H   UNL     1       1.242   2.821   0.629  1.00  0.00     0.161 HD
ATOM     22  H   UNL     1       3.695  -2.015   0.319  1.00  0.00     0.171 HD
ATOM     23  H   UNL     1       1.495  -2.027   1.246  1.00  0.00     0.164 HD
ENDROOT
BRANCH   8  24
ATOM     24  O   UNL     1      -0.353   0.232  -1.275  1.00  0.00    -0.362 OA
ATOM     25  H   UNL     1      -0.808   0.415  -2.138  1.00  0.00     0.214 HD
ENDBRANCH   8  24
BRANCH   8  26
ATOM     26  O   UNL     1      -1.113   2.371  -0.798  1.00  0.00    -0.362 OA
ATOM     27  H   UNL     1      -0.290   2.620  -1.294  1.00  0.00     0.214 HD
ENDBRANCH   8  26
BRANCH   4  28
ATOM     28  O   UNL     1      -5.238  -1.528  -1.581  1.00  0.00    -0.302 OA
ATOM     29  H   UNL     1      -6.103  -1.790  -1.177  1.00  0.00     0.223 HD
ENDBRANCH   4  28
BRANCH  14  30
ATOM     30  N   UNL     1       5.915  -1.041  -0.671  1.00  0.00    -0.369 N 
ATOM     31  H   UNL     1       6.743  -0.537  -1.060  1.00  0.00     0.159 HD
ATOM     32  H   UNL     1       5.971  -2.075  -0.537  1.00  0.00     0.159 HD
ENDBRANCH  14  30
TORSDOF 4
