REMARK SMILES CCOc1ncc(C)c2c1[C@H](c1ccc(C#N)cc1OC)C(C(N)=O)=C(C)N2
REMARK SMILES IDX 4 1 5 2 6 3 7 4 8 5 9 6 10 7 11 8 22 9 26 10 27 11 28 12
REMARK SMILES IDX 3 14 2 15 1 16 12 17 13 18 19 19 14 20 18 21 15 22 20 23
REMARK SMILES IDX 21 24 16 25 17 26 23 27 24 28 25 29
REMARK H PARENT 28 13 24 30 24 31
REMARK Flexibility Score: inf
ROOT
ATOM      1  C   UNL     1       1.614   1.077  -0.358  1.00  0.00     0.219 A 
ATOM      2  N   UNL     1       2.954   1.265  -0.500  1.00  0.00    -0.221 NA
ATOM      3  C   UNL     1       3.782   0.277  -0.913  1.00  0.00     0.120 A 
ATOM      4  C   UNL     1       3.271  -0.988  -1.230  1.00  0.00    -0.009 A 
ATOM      5  C   UNL     1       4.214  -2.058  -1.716  1.00  0.00     0.048 C 
ATOM      6  C   UNL     1       1.879  -1.212  -1.113  1.00  0.00     0.052 A 
ATOM      7  C   UNL     1       1.047  -0.188  -0.628  1.00  0.00     0.050 A 
ATOM      8  C   UNL     1      -0.455  -0.409  -0.496  1.00  0.00     0.098 C 
ATOM      9  C   UNL     1      -0.929  -1.829  -0.800  1.00  0.00     0.048 C 
ATOM     10  C   UNL     1      -0.106  -2.746  -1.361  1.00  0.00     0.022 C 
ATOM     11  C   UNL     1      -0.603  -4.092  -1.830  1.00  0.00     0.065 C 
ATOM     12  N   UNL     1       1.294  -2.459  -1.521  1.00  0.00    -0.358 N 
ATOM     13  H   UNL     1       1.890  -3.188  -1.976  1.00  0.00     0.166 HD
ENDROOT
BRANCH   1  14
ATOM     14  O   UNL     1       0.796   2.139   0.050  1.00  0.00    -0.478 OA
BRANCH  14  15
ATOM     15  C   UNL     1       1.251   3.477   0.225  1.00  0.00     0.228 C 
ATOM     16  C   UNL     1       1.394   4.166  -1.125  1.00  0.00     0.049 C 
ENDBRANCH  14  15
ENDBRANCH   1  14
BRANCH   8  17
ATOM     17  C   UNL     1      -0.944   0.013   0.889  1.00  0.00     0.007 A 
ATOM     18  C   UNL     1      -0.500  -0.684   2.029  1.00  0.00     0.010 A 
ATOM     19  C   UNL     1      -1.830   1.106   1.046  1.00  0.00     0.124 A 
ATOM     20  C   UNL     1      -0.927  -0.309   3.306  1.00  0.00     0.020 A 
ATOM     21  C   UNL     1      -2.256   1.469   2.341  1.00  0.00     0.066 A 
ATOM     22  C   UNL     1      -1.803   0.768   3.462  1.00  0.00     0.056 A 
BRANCH  19  23
ATOM     23  O   UNL     1      -2.250   1.818  -0.094  1.00  0.00    -0.496 OA
ATOM     24  C   UNL     1      -2.999   3.030  -0.065  1.00  0.00     0.278 C 
ENDBRANCH  19  23
BRANCH  22  25
ATOM     25  C   UNL     1      -2.234   1.161   4.777  1.00  0.00     0.099 C 
ATOM     26  N   UNL     1      -2.583   1.477   5.836  1.00  0.00    -0.192 NA
ENDBRANCH  22  25
ENDBRANCH   8  17
BRANCH   9  27
ATOM     27  C   UNL     1      -2.365  -2.127  -0.555  1.00  0.00     0.247 C 
ATOM     28  N   UNL     1      -2.759  -3.255   0.230  1.00  0.00    -0.366 N 
ATOM     29  O   UNL     1      -3.247  -1.323  -0.967  1.00  0.00    -0.270 OA
ATOM     30  H   UNL     1      -3.771  -3.434   0.416  1.00  0.00     0.159 HD
ATOM     31  H   UNL     1      -2.048  -3.843   0.717  1.00  0.00     0.159 HD
ENDBRANCH   9  27
TORSDOF 6
