REMARK SMILES C[C@@H]1[C@H](c2c(F)ccc(F)c2F)C[C@H](NC(=O)c2cnc3c(c2)C[C@@]2(C3)C(=O)Nc3ncccc32)C(=O)N1CC(F)(F)F
REMARK SMILES IDX 1 1 2 2 3 3 13 4 14 5 36 6 37 7 38 8 4 9 11 10 5 11 12 12
REMARK SMILES IDX 9 13 7 14 6 15 10 16 8 17 39 18 40 19 41 20 42 21 43 22
REMARK SMILES IDX 15 23 16 24 17 26 18 27 19 28 23 29 20 30 22 31 21 32 24 33
REMARK SMILES IDX 26 34 25 35 27 36 35 37 28 38 29 39 30 40 34 41 31 43 33 44
REMARK SMILES IDX 32 45
REMARK H PARENT 15 25 29 42
REMARK Flexibility Score: inf
ROOT
ATOM      1  C   UNL     1      -4.490  -1.750   1.247  1.00  0.00     0.032 C 
ATOM      2  C   UNL     1      -4.526  -0.215   1.369  1.00  0.00     0.090 C 
ATOM      3  C   UNL     1      -4.491   0.510  -0.003  1.00  0.00     0.050 C 
ATOM      4  C   UNL     1      -3.071   0.475  -0.592  1.00  0.00     0.045 C 
ATOM      5  C   UNL     1      -2.117   1.298   0.282  1.00  0.00     0.172 C 
ATOM      6  C   UNL     1      -2.350   1.077   1.759  1.00  0.00     0.245 C 
ATOM      7  O   UNL     1      -1.605   1.692   2.570  1.00  0.00    -0.272 OA
ATOM      8  N   UNL     1      -3.435   0.252   2.256  1.00  0.00    -0.328 N 
ENDROOT
BRANCH   3   9
ATOM      9  C   UNL     1      -5.598   0.054  -0.957  1.00  0.00     0.032 A 
ATOM     10  C   UNL     1      -6.869   0.665  -0.863  1.00  0.00     0.165 A 
ATOM     11  C   UNL     1      -5.425  -0.995  -1.894  1.00  0.00     0.129 A 
ATOM     12  F   UNL     1      -7.102   1.645   0.048  1.00  0.00    -0.203 F 
ATOM     13  C   UNL     1      -7.916   0.268  -1.702  1.00  0.00     0.159 A 
ATOM     14  C   UNL     1      -6.481  -1.381  -2.726  1.00  0.00     0.043 A 
ATOM     15  F   UNL     1      -4.256  -1.673  -2.000  1.00  0.00    -0.207 F 
ATOM     16  F   UNL     1      -9.128   0.870  -1.606  1.00  0.00    -0.204 F 
ATOM     17  C   UNL     1      -7.720  -0.749  -2.635  1.00  0.00     0.045 A 
ENDBRANCH   3   9
BRANCH   8  18
ATOM     18  C   UNL     1      -3.537  -0.014   3.704  1.00  0.00     0.235 C 
BRANCH  18  19
ATOM     19  C   UNL     1      -2.443  -0.974   4.197  1.00  0.00     0.406 C 
ATOM     20  F   UNL     1      -2.751  -1.393   5.479  1.00  0.00    -0.169 F 
ATOM     21  F   UNL     1      -2.358  -2.083   3.376  1.00  0.00    -0.169 F 
ATOM     22  F   UNL     1      -1.213  -0.343   4.228  1.00  0.00    -0.169 F 
ENDBRANCH  18  19
ENDBRANCH   8  18
BRANCH   5  23
ATOM     23  N   UNL     1      -0.729   0.974  -0.056  1.00  0.00    -0.340 N 
ATOM     24  C   UNL     1      -0.034   1.611  -1.140  1.00  0.00     0.253 C 
ATOM     25  H   UNL     1      -0.290   0.147   0.410  1.00  0.00     0.164 HD
ATOM     26  O   UNL     1      -0.666   2.366  -1.928  1.00  0.00    -0.269 OA
BRANCH  24  27
ATOM     27  C   UNL     1       1.415   1.385  -1.354  1.00  0.00     0.058 A 
ATOM     28  C   UNL     1       1.992   1.607  -2.626  1.00  0.00     0.125 A 
ATOM     29  C   UNL     1       2.253   0.975  -0.297  1.00  0.00     0.021 A 
ATOM     30  N   UNL     1       3.327   1.415  -2.825  1.00  0.00    -0.260 NA
ATOM     31  C   UNL     1       3.612   0.794  -0.549  1.00  0.00    -0.024 A 
ATOM     32  C   UNL     1       4.120   1.013  -1.800  1.00  0.00     0.045 A 
ATOM     33  C   UNL     1       4.652   0.376   0.419  1.00  0.00     0.059 C 
ATOM     34  C   UNL     1       5.578   0.779  -1.882  1.00  0.00     0.078 C 
ATOM     35  C   UNL     1       5.957   0.392  -0.426  1.00  0.00     0.088 C 
ATOM     36  C   UNL     1       7.005   1.316   0.158  1.00  0.00     0.237 C 
ATOM     37  C   UNL     1       6.710  -0.911  -0.351  1.00  0.00     0.011 A 
ATOM     38  O   UNL     1       6.853   2.558   0.309  1.00  0.00    -0.274 OA
ATOM     39  N   UNL     1       8.202   0.639   0.527  1.00  0.00    -0.310 N 
ATOM     40  C   UNL     1       7.960  -0.713   0.192  1.00  0.00     0.136 A 
ATOM     41  C   UNL     1       6.310  -2.190  -0.739  1.00  0.00     0.010 A 
ATOM     42  H   UNL     1       9.065   1.049   0.947  1.00  0.00     0.171 HD
ATOM     43  N   UNL     1       8.837  -1.733   0.370  1.00  0.00    -0.239 NA
ATOM     44  C   UNL     1       7.212  -3.250  -0.559  1.00  0.00     0.021 A 
ATOM     45  C   UNL     1       8.481  -2.999   0.002  1.00  0.00     0.113 A 
ENDBRANCH  24  27
ENDBRANCH   5  23
TORSDOF 5
