REMARK SMILES O=C(c1ccc(NS(=O)(=O)c2cccc3cccnc23)cc1)N1CCN(CC2CC2)CC1
REMARK SMILES IDX 3 1 4 2 5 3 6 4 21 5 22 6 2 7 1 8 23 9 24 10 32 11 25 12
REMARK SMILES IDX 31 13 26 14 27 15 28 16 29 17 30 18 7 19 8 21 9 22 10 23
REMARK SMILES IDX 11 24 12 25 20 26 13 27 15 28 19 29 14 30 16 31 18 32 17 33
REMARK H PARENT 7 20
REMARK Flexibility Score: inf
ROOT
ATOM      1  C   UNL     1      -0.509  -0.957  -0.544  1.00  0.00     0.040 A 
ATOM      2  C   UNL     1       0.548  -0.068  -0.302  1.00  0.00     0.016 A 
ATOM      3  C   UNL     1       1.800  -0.547   0.098  1.00  0.00     0.027 A 
ATOM      4  C   UNL     1       2.019  -1.931   0.245  1.00  0.00     0.049 A 
ATOM      5  C   UNL     1       0.966  -2.818  -0.028  1.00  0.00     0.027 A 
ATOM      6  C   UNL     1      -0.287  -2.337  -0.415  1.00  0.00     0.016 A 
ENDROOT
BRANCH   1   7
ATOM      7  C   UNL     1      -1.831  -0.451  -0.968  1.00  0.00     0.253 C 
ATOM      8  O   UNL     1      -1.890   0.538  -1.750  1.00  0.00    -0.269 OA
ATOM      9  N   UNL     1      -3.048  -1.060  -0.500  1.00  0.00    -0.336 N 
ATOM     10  C   UNL     1      -4.159  -1.303  -1.422  1.00  0.00     0.135 C 
ATOM     11  C   UNL     1      -3.181  -1.458   0.906  1.00  0.00     0.135 C 
ATOM     12  C   UNL     1      -5.487  -0.750  -0.859  1.00  0.00     0.106 C 
ATOM     13  C   UNL     1      -4.661  -1.604   1.292  1.00  0.00     0.106 C 
ATOM     14  N   UNL     1      -5.501  -0.594   0.617  1.00  0.00    -0.300 NA
BRANCH  14  15
ATOM     15  C   UNL     1      -5.182   0.785   1.048  1.00  0.00     0.088 C 
BRANCH  15  16
ATOM     16  C   UNL     1      -6.445   1.653   0.979  1.00  0.00     0.003 C 
ATOM     17  C   UNL     1      -6.526   2.655  -0.168  1.00  0.00     0.005 C 
ATOM     18  C   UNL     1      -6.195   3.134   1.238  1.00  0.00     0.005 C 
ENDBRANCH  15  16
ENDBRANCH  14  15
ENDBRANCH   1   7
BRANCH   4  19
ATOM     19  N   UNL     1       3.293  -2.462   0.649  1.00  0.00    -0.280 N 
ATOM     20  H   UNL     1       3.435  -3.498   0.648  1.00  0.00     0.180 HD
BRANCH  19  21
ATOM     21  S   UNL     1       4.604  -1.493   1.244  1.00  0.00     0.264 S 
ATOM     22  O   UNL     1       5.679  -2.400   1.777  1.00  0.00    -0.201 OA
ATOM     23  O   UNL     1       4.096  -0.627   2.364  1.00  0.00    -0.201 OA
BRANCH  21  24
ATOM     24  C   UNL     1       5.285  -0.500  -0.050  1.00  0.00     0.114 A 
ATOM     25  C   UNL     1       5.050  -0.851  -1.389  1.00  0.00     0.024 A 
ATOM     26  C   UNL     1       6.060   0.639   0.239  1.00  0.00     0.091 A 
ATOM     27  C   UNL     1       5.561  -0.068  -2.428  1.00  0.00     0.002 A 
ATOM     28  C   UNL     1       6.573   1.429  -0.816  1.00  0.00     0.002 A 
ATOM     29  N   UNL     1       6.326   0.991   1.529  1.00  0.00    -0.255 NA
ATOM     30  C   UNL     1       6.316   1.070  -2.146  1.00  0.00     0.010 A 
ATOM     31  C   UNL     1       7.333   2.564  -0.509  1.00  0.00     0.012 A 
ATOM     32  C   UNL     1       7.063   2.088   1.839  1.00  0.00     0.112 A 
ATOM     33  C   UNL     1       7.579   2.896   0.825  1.00  0.00     0.021 A 
ENDBRANCH  21  24
ENDBRANCH  19  21
ENDBRANCH   4  19
TORSDOF 6
