REMARK SMILES C[C@H]1CNC(=O)c2cnn3ccc(nc23)N[C@H](C)c2cc(F)ccc2O1
REMARK SMILES IDX 17 1 18 2 19 3 25 4 24 5 20 6 23 7 21 8 22 9 26 10 2 11 1 12
REMARK SMILES IDX 16 14 13 16 14 17 12 18 15 19 11 20 7 21 10 22 8 23 9 24
REMARK SMILES IDX 5 25 4 26 6 27 3 29
REMARK H PARENT 16 15 4 28
REMARK Flexibility Score: 60.00
ROOT
ATOM      1  C   UNL     1      -1.371  -1.936  -1.061  1.00  0.00     0.112 C 
ATOM      2  C   UNL     1      -1.140  -1.216  -2.394  1.00  0.00     0.036 C 
ENDROOT
BRANCH   1   3
ATOM      3  C   UNL     1      -1.701  -1.081   0.170  1.00  0.00     0.019 A 
ATOM      4  C   UNL     1      -1.732   0.346   0.207  1.00  0.00     0.125 A 
ATOM      5  C   UNL     1      -2.009   0.988   1.432  1.00  0.00     0.050 A 
ATOM      6  C   UNL     1      -1.978  -1.795   1.354  1.00  0.00     0.049 A 
ATOM      7  C   UNL     1      -2.260   0.253   2.589  1.00  0.00     0.043 A 
ATOM      8  C   UNL     1      -2.250  -1.136   2.550  1.00  0.00     0.123 A 
ATOM      9  F   UNL     1      -2.503  -1.848   3.675  1.00  0.00    -0.207 F 
BRANCH   4  10
ATOM     10  O   UNL     1      -1.510   1.079  -0.975  1.00  0.00    -0.489 OA
BRANCH  10  11
ATOM     11  C   UNL     1      -1.200   2.472  -1.150  1.00  0.00     0.189 CG0
ATOM     12  C   UNL     1      -2.415   3.379  -0.924  1.00  0.00     0.055 C 
ATOM     13  G   UNL     1       0.046   2.908  -0.355  1.00  0.00     0.000 G0
ENDBRANCH  10  11
ENDBRANCH   4  10
ENDBRANCH   1   3
BRANCH   1  14
ATOM     14  N   UNL     1      -0.236  -2.828  -0.781  1.00  0.00    -0.363 N 
ATOM     15  H   UNL     1      -0.403  -3.858  -0.858  1.00  0.00     0.162 HD
BRANCH  14  16
ATOM     16  C   UNL     1       1.058  -2.377  -0.344  1.00  0.00     0.130 A 
ATOM     17  N   UNL     1       1.316  -1.041  -0.211  1.00  0.00    -0.211 NA
ATOM     18  C   UNL     1       2.060  -3.320  -0.018  1.00  0.00     0.067 A 
ATOM     19  C   UNL     1       2.535  -0.644   0.228  1.00  0.00     0.170 A 
ATOM     20  C   UNL     1       3.300  -2.862   0.451  1.00  0.00     0.119 A 
ATOM     21  C   UNL     1       2.988   0.630   0.478  1.00  0.00     0.104 A 
ATOM     22  N   UNL     1       3.482  -1.525   0.560  1.00  0.00    -0.222 N 
ATOM     23  C   UNL     1       4.267   0.429   0.994  1.00  0.00     0.151 A 
ATOM     24  N   UNL     1       4.548  -0.898   1.029  1.00  0.00    -0.174 NA
BRANCH  21  25
ATOM     25  C   UNL     1       2.269   1.902   0.304  1.00  0.00     0.256 C 
ATOM     26  N   UNL     1       1.146   1.974  -0.580  1.00  0.00    -0.348 N 
ATOM     27  O   UNL     1       2.643   2.925   0.937  1.00  0.00    -0.269 OA
ATOM     28  H   UNL     1       1.082   1.279  -1.357  1.00  0.00     0.163 HD
BRANCH  26  29
ATOM     29  C   UNL     1       0.046   2.908  -0.355  1.00  0.00     0.161 CG0
ATOM     30  G   UNL     1      -1.200   2.472  -1.150  1.00  0.00     0.000 G0
ENDBRANCH  26  29
ENDBRANCH  21  25
ENDBRANCH  14  16
ENDBRANCH   1  14
TORSDOF 0
