REMARK SMILES CCC(=O)N1CC[C@H](Nc2ncnc3c2CN(c2cnc(OC)c(C(F)(F)F)c2)CC3)C1
REMARK SMILES IDX 9 1 8 3 5 4 6 5 32 6 7 7 3 8 4 9 2 10 1 11 10 12 15 13 11 14
REMARK SMILES IDX 16 15 14 16 12 17 17 18 31 19 13 20 30 21 18 22 19 23 29 24
REMARK SMILES IDX 20 25 24 26 21 27 25 28 26 29 27 30 28 31 22 32 23 33
REMARK H PARENT 9 2
REMARK Flexibility Score: inf
ROOT
ATOM      1  N   UNL     1       1.732  -1.031  -0.186  1.00  0.00    -0.365 N 
ATOM      2  H   UNL     1       1.154  -0.480  -0.857  1.00  0.00     0.162 HD
ENDROOT
BRANCH   1   3
ATOM      3  C   UNL     1       2.882  -1.784  -0.702  1.00  0.00     0.102 C 
ATOM      4  N   UNL     1       4.523  -0.413  -1.747  1.00  0.00    -0.341 N 
ATOM      5  C   UNL     1       3.645  -0.847  -2.820  1.00  0.00     0.121 C 
ATOM      6  C   UNL     1       4.181  -1.010  -0.466  1.00  0.00     0.144 C 
ATOM      7  C   UNL     1       2.788  -1.955  -2.225  1.00  0.00     0.048 C 
BRANCH   4   8
ATOM      8  C   UNL     1       5.632   0.481  -1.962  1.00  0.00     0.222 C 
ATOM      9  O   UNL     1       5.854   0.932  -3.118  1.00  0.00    -0.275 OA
BRANCH   8  10
ATOM     10  C   UNL     1       6.517   0.930  -0.831  1.00  0.00     0.097 C 
ATOM     11  C   UNL     1       6.017   2.248  -0.246  1.00  0.00     0.014 C 
ENDBRANCH   8  10
ENDBRANCH   4   8
ENDBRANCH   1   3
BRANCH   1  12
ATOM     12  C   UNL     1       1.396  -1.030   1.215  1.00  0.00     0.134 A 
ATOM     13  C   UNL     1       0.175  -0.489   1.681  1.00  0.00     0.035 A 
ATOM     14  N   UNL     1       2.274  -1.559   2.110  1.00  0.00    -0.219 NA
ATOM     15  C   UNL     1      -0.842   0.099   0.721  1.00  0.00     0.158 C 
ATOM     16  C   UNL     1      -0.057  -0.488   3.077  1.00  0.00     0.053 A 
ATOM     17  C   UNL     1       2.017  -1.567   3.440  1.00  0.00     0.224 A 
ATOM     18  N   UNL     1      -2.101   0.440   1.395  1.00  0.00    -0.365 N 
ATOM     19  C   UNL     1      -1.346   0.020   3.668  1.00  0.00     0.078 C 
ATOM     20  N   UNL     1       0.863  -1.036   3.912  1.00  0.00    -0.241 NA
ATOM     21  C   UNL     1      -2.031   1.015   2.739  1.00  0.00     0.123 C 
BRANCH  18  22
ATOM     22  C   UNL     1      -3.362   0.298   0.712  1.00  0.00     0.056 A 
ATOM     23  C   UNL     1      -4.467  -0.266   1.366  1.00  0.00     0.141 A 
ATOM     24  C   UNL     1      -3.500   0.682  -0.628  1.00  0.00     0.046 A 
ATOM     25  N   UNL     1      -5.645  -0.425   0.709  1.00  0.00    -0.219 NA
ATOM     26  C   UNL     1      -4.732   0.530  -1.292  1.00  0.00     0.120 A 
ATOM     27  C   UNL     1      -5.807  -0.048  -0.589  1.00  0.00     0.225 A 
BRANCH  26  28
ATOM     28  C   UNL     1      -4.896   0.942  -2.737  1.00  0.00     0.421 C 
ATOM     29  F   UNL     1      -3.774   1.601  -3.215  1.00  0.00    -0.166 F 
ATOM     30  F   UNL     1      -5.981   1.795  -2.856  1.00  0.00    -0.166 F 
ATOM     31  F   UNL     1      -5.114  -0.182  -3.514  1.00  0.00    -0.166 F 
ENDBRANCH  26  28
BRANCH  27  32
ATOM     32  O   UNL     1      -7.039  -0.236  -1.228  1.00  0.00    -0.481 OA
ATOM     33  C   UNL     1      -8.152  -0.855  -0.592  1.00  0.00     0.280 C 
ENDBRANCH  27  32
ENDBRANCH  18  22
ENDBRANCH   1  12
TORSDOF 7
