REMARK SMILES Cc1nc2cc(C(=O)N(C)C)cc(O[C@H]3CCOc4cc(F)cc(F)c43)c2[nH]1
REMARK SMILES IDX 6 1 12 2 13 3 27 4 28 5 2 6 1 7 3 8 4 9 5 10 7 12 10 13 9 14
REMARK SMILES IDX 11 15 8 16 14 17 15 18 16 19 26 20 17 21 19 22 24 23 18 24
REMARK SMILES IDX 20 25 23 26 25 27 21 28 22 29
REMARK H PARENT 28 11
REMARK Flexibility Score: inf
ROOT
ATOM      1  C   UNL     1      -2.354  -0.607   0.636  1.00  0.00     0.045 A 
ATOM      2  C   UNL     1      -0.946  -0.759   0.530  1.00  0.00     0.062 A 
ATOM      3  C   UNL     1      -0.115   0.359   0.269  1.00  0.00     0.146 A 
ATOM      4  C   UNL     1      -0.742   1.597   0.141  1.00  0.00     0.108 A 
ATOM      5  N   UNL     1      -0.181   2.791  -0.087  1.00  0.00    -0.339 N 
ATOM      6  C   UNL     1      -1.233   3.646  -0.105  1.00  0.00     0.104 A 
ATOM      7  C   UNL     1      -1.084   5.121  -0.273  1.00  0.00     0.087 C 
ATOM      8  N   UNL     1      -2.431   3.044   0.118  1.00  0.00    -0.234 NA
ATOM      9  C   UNL     1      -2.090   1.751   0.261  1.00  0.00     0.093 A 
ATOM     10  C   UNL     1      -2.933   0.675   0.516  1.00  0.00     0.044 A 
ATOM     11  H   UNL     1       0.832   3.015  -0.210  1.00  0.00     0.168 HD
ENDROOT
BRANCH   1  12
ATOM     12  C   UNL     1      -3.200  -1.785   0.924  1.00  0.00     0.253 C 
ATOM     13  C   UNL     1      -5.480  -2.822   0.896  1.00  0.00     0.146 C 
ATOM     14  N   UNL     1      -4.455  -2.001   0.248  1.00  0.00    -0.345 N 
ATOM     15  C   UNL     1      -4.644  -1.542  -1.133  1.00  0.00     0.146 C 
ATOM     16  O   UNL     1      -2.802  -2.623   1.779  1.00  0.00    -0.269 OA
ENDBRANCH   1  12
BRANCH   3  17
ATOM     17  O   UNL     1       1.281   0.279   0.144  1.00  0.00    -0.483 OA
BRANCH  17  18
ATOM     18  C   UNL     1       2.050  -0.925   0.151  1.00  0.00     0.213 C 
ATOM     19  C   UNL     1       1.882  -1.682  -1.182  1.00  0.00     0.092 C 
ATOM     20  C   UNL     1       3.499  -0.560   0.388  1.00  0.00     0.070 A 
ATOM     21  C   UNL     1       2.578  -0.928  -2.318  1.00  0.00     0.234 C 
ATOM     22  C   UNL     1       4.388  -0.449  -0.702  1.00  0.00     0.132 A 
ATOM     23  C   UNL     1       3.957  -0.263   1.684  1.00  0.00     0.136 A 
ATOM     24  O   UNL     1       3.954  -0.724  -2.004  1.00  0.00    -0.493 OA
ATOM     25  C   UNL     1       5.721  -0.085  -0.484  1.00  0.00     0.086 A 
ATOM     26  C   UNL     1       5.290   0.105   1.891  1.00  0.00     0.079 A 
ATOM     27  F   UNL     1       3.113  -0.327   2.745  1.00  0.00    -0.206 F 
ATOM     28  C   UNL     1       6.171   0.191   0.810  1.00  0.00     0.129 A 
ATOM     29  F   UNL     1       7.463   0.547   1.016  1.00  0.00    -0.207 F 
ENDBRANCH  17  18
ENDBRANCH   3  17
TORSDOF 3
