REMARK SMILES [2H]C([2H])([2H])NC(=O)c1nnc(NC(=O)C2CC2)cc1Nc1cccc(-c2ncn(C)n2)c1OC
REMARK SMILES IDX 8 1 19 2 18 3 11 4 10 5 9 6 6 7 2 8 5 9 7 11 20 12 21 14
REMARK SMILES IDX 22 15 32 16 23 17 25 18 24 19 33 20 34 21 26 22 31 23 27 24
REMARK SMILES IDX 29 25 28 26 30 27 12 28 13 29 14 31 15 32 16 33 17 34
REMARK H PARENT 5 10 20 13 12 30
REMARK Flexibility Score: inf
ROOT
ATOM      1  C   UNL     1       1.151  -2.799   0.802  1.00  0.00     0.174 A 
ATOM      2  C   UNL     1       1.064  -1.416   1.086  1.00  0.00     0.076 A 
ATOM      3  C   UNL     1       1.610  -0.508   0.168  1.00  0.00     0.077 A 
ATOM      4  C   UNL     1       2.202  -0.974  -1.007  1.00  0.00     0.157 A 
ATOM      5  N   UNL     1       2.258  -2.313  -1.225  1.00  0.00    -0.132 NA
ATOM      6  N   UNL     1       1.752  -3.187  -0.355  1.00  0.00    -0.141 NA
ENDROOT
BRANCH   1   7
ATOM      7  C   UNL     1       0.583  -3.849   1.685  1.00  0.00     0.273 C 
ATOM      8  C   UNL     1       0.379  -6.284   2.326  1.00  0.00     0.143 C 
ATOM      9  N   UNL     1       0.933  -5.227   1.488  1.00  0.00    -0.354 N 
ATOM     10  H   UNL     1       1.604  -5.495   0.734  1.00  0.00     0.163 HD
ATOM     11  O   UNL     1      -0.237  -3.546   2.594  1.00  0.00    -0.267 OA
ENDBRANCH   1   7
BRANCH   2  12
ATOM     12  N   UNL     1       0.493  -0.932   2.312  1.00  0.00    -0.350 N 
ATOM     13  H   UNL     1       0.802  -1.387   3.201  1.00  0.00     0.167 HD
BRANCH  12  14
ATOM     14  C   UNL     1      -0.280   0.280   2.410  1.00  0.00     0.082 A 
ATOM     15  C   UNL     1      -0.147   1.074   3.557  1.00  0.00     0.030 A 
ATOM     16  C   UNL     1      -1.182   0.675   1.393  1.00  0.00     0.153 A 
ATOM     17  C   UNL     1      -0.854   2.269   3.677  1.00  0.00     0.003 A 
ATOM     18  C   UNL     1      -1.876   1.904   1.500  1.00  0.00     0.065 A 
ATOM     19  C   UNL     1      -1.704   2.687   2.654  1.00  0.00     0.016 A 
BRANCH  16  20
ATOM     20  O   UNL     1      -1.404  -0.157   0.294  1.00  0.00    -0.494 OA
ATOM     21  C   UNL     1      -2.279  -1.275   0.374  1.00  0.00     0.278 C 
ENDBRANCH  16  20
BRANCH  18  22
ATOM     22  C   UNL     1      -2.791   2.379   0.431  1.00  0.00     0.184 A 
ATOM     23  N   UNL     1      -3.607   3.446   0.567  1.00  0.00    -0.151 NA
ATOM     24  N   UNL     1      -2.886   1.815  -0.797  1.00  0.00    -0.215 NA
ATOM     25  N   UNL     1      -4.247   3.551  -0.581  1.00  0.00    -0.255 N 
ATOM     26  C   UNL     1      -3.810   2.585  -1.403  1.00  0.00     0.220 A 
ATOM     27  C   UNL     1      -5.189   4.612  -0.906  1.00  0.00     0.175 C 
ENDBRANCH  18  22
ENDBRANCH  12  14
ENDBRANCH   2  12
BRANCH   4  28
ATOM     28  N   UNL     1       2.766  -0.044  -1.949  1.00  0.00    -0.309 N 
ATOM     29  C   UNL     1       3.288  -0.425  -3.240  1.00  0.00     0.228 C 
ATOM     30  H   UNL     1       2.769   0.962  -1.674  1.00  0.00     0.171 HD
ATOM     31  O   UNL     1       3.085  -1.587  -3.681  1.00  0.00    -0.274 OA
BRANCH  29  32
ATOM     32  C   UNL     1       4.070   0.524  -4.120  1.00  0.00     0.079 C 
ATOM     33  C   UNL     1       3.549   1.950  -4.206  1.00  0.00     0.014 C 
ATOM     34  C   UNL     1       4.832   1.652  -3.440  1.00  0.00     0.014 C 
ENDBRANCH  29  32
ENDBRANCH   4  28
TORSDOF 7
