REMARK SMILES CCO[C@H]1CCN(Cc2c(OC)cc(C)c3[nH]ccc23)[C@H](c2ccc(C(=O)O)cc2)C1
REMARK SMILES IDX 4 1 5 2 6 3 7 4 21 5 31 6 3 7 2 8 1 9 22 10 23 11 30 12
REMARK SMILES IDX 24 13 29 14 25 15 26 16 27 17 28 18 8 20 9 21 10 22 20 23
REMARK SMILES IDX 13 24 16 25 19 26 14 27 17 28 18 29 15 30 11 32 12 33
REMARK H PARENT 28 19 17 31
REMARK Flexibility Score: inf
ROOT
ATOM      1  C   UNL     1      -2.463  -2.384   0.201  1.00  0.00     0.121 C 
ATOM      2  C   UNL     1      -0.983  -2.762   0.306  1.00  0.00     0.047 C 
ATOM      3  C   UNL     1      -0.125  -1.835  -0.557  1.00  0.00     0.088 C 
ATOM      4  N   UNL     1      -0.279  -0.416  -0.153  1.00  0.00    -0.292 NA
ATOM      5  C   UNL     1      -1.705   0.007  -0.256  1.00  0.00     0.090 C 
ATOM      6  C   UNL     1      -2.626  -0.912   0.580  1.00  0.00     0.056 C 
ENDROOT
BRANCH   1   7
ATOM      7  O   UNL     1      -2.932  -2.578  -1.125  1.00  0.00    -0.378 OA
BRANCH   7   8
ATOM      8  C   UNL     1      -3.509  -3.859  -1.295  1.00  0.00     0.157 C 
ATOM      9  C   UNL     1      -5.013  -3.799  -1.048  1.00  0.00     0.035 C 
ENDBRANCH   7   8
ENDBRANCH   1   7
BRANCH   5  10
ATOM     10  C   UNL     1      -1.902   1.433   0.233  1.00  0.00    -0.031 A 
ATOM     11  C   UNL     1      -2.586   2.365  -0.563  1.00  0.00     0.006 A 
ATOM     12  C   UNL     1      -1.417   1.834   1.489  1.00  0.00     0.006 A 
ATOM     13  C   UNL     1      -2.769   3.678  -0.118  1.00  0.00     0.016 A 
ATOM     14  C   UNL     1      -1.599   3.146   1.934  1.00  0.00     0.016 A 
ATOM     15  C   UNL     1      -2.275   4.083   1.133  1.00  0.00     0.059 A 
BRANCH  15  16
ATOM     16  C   UNL     1      -2.470   5.474   1.599  1.00  0.00     0.335 C 
ATOM     17  O   UNL     1      -2.012   5.844   2.714  1.00  0.00    -0.246 OA
BRANCH  16  18
ATOM     18  O   UNL     1      -3.159   6.389   0.807  1.00  0.00    -0.478 OA
ATOM     19  H   UNL     1      -3.298   7.344   1.117  1.00  0.00     0.297 HD
ENDBRANCH  16  18
ENDBRANCH  15  16
ENDBRANCH   5  10
BRANCH   4  20
ATOM     20  C   UNL     1       0.586   0.431  -1.014  1.00  0.00     0.125 C 
BRANCH  20  21
ATOM     21  C   UNL     1       2.051   0.218  -0.702  1.00  0.00     0.018 A 
ATOM     22  C   UNL     1       2.611   0.706   0.505  1.00  0.00     0.124 A 
ATOM     23  C   UNL     1       2.894  -0.493  -1.571  1.00  0.00     0.008 A 
ATOM     24  C   UNL     1       3.984   0.475   0.791  1.00  0.00     0.052 A 
ATOM     25  C   UNL     1       4.217  -0.711  -1.283  1.00  0.00     0.049 A 
ATOM     26  C   UNL     1       2.641  -1.102  -2.787  1.00  0.00     0.028 A 
ATOM     27  C   UNL     1       4.804  -0.239  -0.106  1.00  0.00    -0.023 A 
ATOM     28  N   UNL     1       4.807  -1.424  -2.261  1.00  0.00    -0.361 N 
ATOM     29  C   UNL     1       3.848  -1.664  -3.180  1.00  0.00     0.083 A 
ATOM     30  C   UNL     1       6.254  -0.484   0.195  1.00  0.00     0.047 C 
ATOM     31  H   UNL     1       5.802  -1.738  -2.308  1.00  0.00     0.166 HD
BRANCH  22  32
ATOM     32  O   UNL     1       1.782   1.412   1.393  1.00  0.00    -0.496 OA
ATOM     33  C   UNL     1       2.204   1.948   2.644  1.00  0.00     0.278 C 
ENDBRANCH  22  32
ENDBRANCH  20  21
ENDBRANCH   4  20
TORSDOF 8
