REMARK SMILES C[C@H](Nc1ccc(C#N)n(C)c1=O)c1cc2cc(Cl)ccc2[nH]c1=O
REMARK SMILES IDX 3 1 2 3 1 4 14 5 15 6 24 7 16 8 23 9 25 10 22 11 17 12 21 14
REMARK SMILES IDX 18 15 20 16 19 17 4 18 5 19 12 20 6 21 10 22 13 23 7 24
REMARK SMILES IDX 11 25 8 26 9 27
REMARK H PARENT 3 2 23 13
REMARK Flexibility Score: inf
ROOT
ATOM      1  N   UNL     1       0.885  -0.181  -0.187  1.00  0.00    -0.374 N 
ATOM      2  H   UNL     1       1.069   0.095   0.804  1.00  0.00     0.161 HD
ENDROOT
BRANCH   1   3
ATOM      3  C   UNL     1      -0.506  -0.447  -0.588  1.00  0.00     0.112 C 
ATOM      4  C   UNL     1      -0.682  -1.908  -1.026  1.00  0.00     0.036 C 
BRANCH   3   5
ATOM      5  C   UNL     1      -1.473  -0.107   0.541  1.00  0.00     0.040 A 
ATOM      6  C   UNL     1      -2.495   0.830   0.314  1.00  0.00     0.022 A 
ATOM      7  C   UNL     1      -1.391  -0.715   1.815  1.00  0.00     0.253 A 
ATOM      8  C   UNL     1      -3.401   1.151   1.329  1.00  0.00     0.000 A 
ATOM      9  N   UNL     1      -2.283  -0.390   2.792  1.00  0.00    -0.322 N 
ATOM     10  O   UNL     1      -0.491  -1.563   2.062  1.00  0.00    -0.269 OA
ATOM     11  C   UNL     1      -3.277   0.519   2.585  1.00  0.00     0.048 A 
ATOM     12  C   UNL     1      -4.425   2.087   1.115  1.00  0.00     0.030 A 
ATOM     13  H   UNL     1      -2.196  -0.856   3.725  1.00  0.00     0.170 HD
ATOM     14  C   UNL     1      -4.182   0.835   3.611  1.00  0.00     0.028 A 
ATOM     15  C   UNL     1      -5.321   2.393   2.145  1.00  0.00     0.041 A 
ATOM     16  C   UNL     1      -5.199   1.768   3.390  1.00  0.00     0.023 A 
ATOM     17  Cl  UNL     1      -6.600   3.563   1.874  1.00  0.00    -0.084 Cl
ENDBRANCH   3   5
ENDBRANCH   1   3
BRANCH   1  18
ATOM     18  C   UNL     1       2.024  -0.281  -1.072  1.00  0.00     0.101 A 
ATOM     19  C   UNL     1       1.878  -0.206  -2.463  1.00  0.00     0.034 A 
ATOM     20  C   UNL     1       3.321  -0.427  -0.538  1.00  0.00     0.274 A 
ATOM     21  C   UNL     1       2.993  -0.279  -3.288  1.00  0.00     0.040 A 
ATOM     22  N   UNL     1       4.418  -0.521  -1.365  1.00  0.00    -0.301 N 
ATOM     23  O   UNL     1       3.464  -0.477   0.716  1.00  0.00    -0.267 OA
ATOM     24  C   UNL     1       4.263  -0.431  -2.730  1.00  0.00     0.122 A 
ATOM     25  C   UNL     1       5.770  -0.665  -0.792  1.00  0.00     0.154 C 
BRANCH  24  26
ATOM     26  C   UNL     1       5.397  -0.479  -3.628  1.00  0.00     0.118 C 
ATOM     27  N   UNL     1       6.303  -0.517  -4.346  1.00  0.00    -0.191 NA
ENDBRANCH  24  26
ENDBRANCH   1  18
TORSDOF 4
