REMARK SMILES C=CC(=O)Nc1cc(Nc2ncc(C(=O)OC(C)C)c(-c3cn(C)c4ccccc34)n2)c(OC)cc1N(C)CCN(C)C
REMARK SMILES IDX 32 1 8 2 7 3 6 4 36 5 35 6 33 7 34 8 9 9 10 11 11 12 31 13
REMARK SMILES IDX 12 14 20 15 13 16 21 17 22 18 30 19 23 20 25 21 29 22 24 23
REMARK SMILES IDX 26 24 28 25 27 26 14 27 15 28 16 29 17 30 18 31 19 32 37 33
REMARK SMILES IDX 38 34 39 35 40 36 41 37 42 38 43 39 5 40 3 41 4 43 2 44 1 45
REMARK H PARENT 9 10 5 42
REMARK Flexibility Score: inf
ROOT
ATOM      1  C   UNL     1       2.208  -1.403  -1.295  1.00  0.00     0.144 A 
ATOM      2  C   UNL     1       1.082  -0.905  -0.614  1.00  0.00     0.086 A 
ATOM      3  C   UNL     1       1.253  -0.245   0.615  1.00  0.00     0.058 A 
ATOM      4  C   UNL     1       2.527  -0.076   1.172  1.00  0.00     0.067 A 
ATOM      5  C   UNL     1       3.652  -0.623   0.516  1.00  0.00     0.064 A 
ATOM      6  C   UNL     1       3.485  -1.260  -0.720  1.00  0.00     0.076 A 
ENDROOT
BRANCH   1   7
ATOM      7  O   UNL     1       2.022  -2.037  -2.535  1.00  0.00    -0.494 OA
ATOM      8  C   UNL     1       3.070  -2.576  -3.334  1.00  0.00     0.278 C 
ENDBRANCH   1   7
BRANCH   2   9
ATOM      9  N   UNL     1      -0.233  -1.168  -1.133  1.00  0.00    -0.321 N 
ATOM     10  H   UNL     1      -0.385  -2.047  -1.678  1.00  0.00     0.170 HD
BRANCH   9  11
ATOM     11  C   UNL     1      -1.378  -0.347  -0.880  1.00  0.00     0.227 A 
ATOM     12  N   UNL     1      -1.251   0.998  -0.737  1.00  0.00    -0.220 NA
ATOM     13  N   UNL     1      -2.609  -0.915  -0.840  1.00  0.00    -0.212 NA
ATOM     14  C   UNL     1      -2.339   1.784  -0.532  1.00  0.00     0.133 A 
ATOM     15  C   UNL     1      -3.732  -0.181  -0.625  1.00  0.00     0.093 A 
ATOM     16  C   UNL     1      -3.619   1.218  -0.448  1.00  0.00     0.104 A 
BRANCH  15  17
ATOM     17  C   UNL     1      -5.027  -0.891  -0.620  1.00  0.00     0.027 A 
ATOM     18  C   UNL     1      -6.198  -0.516  -1.276  1.00  0.00     0.096 A 
ATOM     19  C   UNL     1      -5.306  -2.107  -0.021  1.00  0.00     0.009 A 
ATOM     20  N   UNL     1      -7.163  -1.445  -1.076  1.00  0.00    -0.350 N 
ATOM     21  C   UNL     1      -6.614  -2.408  -0.309  1.00  0.00     0.048 A 
ATOM     22  C   UNL     1      -4.517  -2.944   0.771  1.00  0.00     0.011 A 
ATOM     23  C   UNL     1      -8.531  -1.393  -1.582  1.00  0.00     0.149 C 
ATOM     24  C   UNL     1      -7.221  -3.572   0.176  1.00  0.00     0.027 A 
ATOM     25  C   UNL     1      -5.102  -4.122   1.269  1.00  0.00     0.001 A 
ATOM     26  C   UNL     1      -6.447  -4.434   0.974  1.00  0.00     0.002 A 
ENDBRANCH  15  17
BRANCH  16  27
ATOM     27  C   UNL     1      -4.767   2.089  -0.117  1.00  0.00     0.342 C 
ATOM     28  O   UNL     1      -5.685   1.667   0.638  1.00  0.00    -0.246 OA
BRANCH  27  29
ATOM     29  O   UNL     1      -4.814   3.393  -0.625  1.00  0.00    -0.459 OA
BRANCH  29  30
ATOM     30  C   UNL     1      -5.863   4.316  -0.330  1.00  0.00     0.170 C 
ATOM     31  C   UNL     1      -5.645   4.929   1.055  1.00  0.00     0.052 C 
ATOM     32  C   UNL     1      -5.883   5.403  -1.403  1.00  0.00     0.052 C 
ENDBRANCH  29  30
ENDBRANCH  27  29
ENDBRANCH  16  27
ENDBRANCH   9  11
ENDBRANCH   2   9
BRANCH   5  33
ATOM     33  N   UNL     1       4.949  -0.622   1.140  1.00  0.00    -0.372 N 
ATOM     34  C   UNL     1       5.165  -1.449   2.332  1.00  0.00     0.143 C 
BRANCH  33  35
ATOM     35  C   UNL     1       6.060   0.132   0.544  1.00  0.00     0.131 C 
BRANCH  35  36
ATOM     36  C   UNL     1       7.072  -0.804  -0.136  1.00  0.00     0.105 C 
BRANCH  36  37
ATOM     37  N   UNL     1       8.263  -0.044  -0.577  1.00  0.00    -0.308 NA
ATOM     38  C   UNL     1       8.037   0.578  -1.894  1.00  0.00     0.105 C 
ATOM     39  C   UNL     1       9.437  -0.928  -0.652  1.00  0.00     0.105 C 
ENDBRANCH  36  37
ENDBRANCH  35  36
ENDBRANCH  33  35
ENDBRANCH   5  33
BRANCH   4  40
ATOM     40  N   UNL     1       2.651   0.614   2.425  1.00  0.00    -0.321 N 
ATOM     41  C   UNL     1       3.588   1.682   2.629  1.00  0.00     0.247 C 
ATOM     42  H   UNL     1       1.914   0.450   3.148  1.00  0.00     0.170 HD
ATOM     43  O   UNL     1       4.054   2.303   1.637  1.00  0.00    -0.270 OA
BRANCH  41  44
ATOM     44  C   UNL     1       4.001   2.100   3.981  1.00  0.00     0.064 C 
ATOM     45  C   UNL     1       3.749   1.383   5.075  1.00  0.00     0.014 C 
ENDBRANCH  41  44
ENDBRANCH   4  40
TORSDOF 13
