REMARK SMILES COC(=O)[C@H](c1ccccc1)[C@H]1CCCCN1C(=O)OC[n+]1cccc(C(=O)N[C@@H](CO)C(=O)[O-])c1
REMARK SMILES IDX 21 1 20 2 18 3 19 4 17 5 12 6 13 7 14 8 16 9 15 10 5 11 3 12
REMARK SMILES IDX 4 13 2 14 1 15 6 16 7 17 11 18 8 19 10 20 9 21 22 22 23 23
REMARK SMILES IDX 36 24 24 25 26 26 25 27 27 28 28 29 29 30 30 32 31 33 32 34
REMARK SMILES IDX 33 36 35 37 34 38
REMARK H PARENT 29 31 32 35
REMARK Flexibility Score: inf
ROOT
ATOM      1  C   UNL     1       1.724  -3.128  -1.882  1.00  0.00     0.607 C 
ENDROOT
BRANCH   1   2
ATOM      2  O   UNL     1       0.311  -2.925  -1.858  1.00  0.00    -0.388 OA
BRANCH   2   3
ATOM      3  C   UNL     1      -0.397  -2.546  -0.710  1.00  0.00     0.414 C 
ATOM      4  O   UNL     1       0.202  -2.460   0.395  1.00  0.00    -0.224 OA
BRANCH   3   5
ATOM      5  N   UNL     1      -1.812  -2.273  -0.792  1.00  0.00    -0.304 N 
ATOM      6  C   UNL     1      -2.533  -1.634   0.333  1.00  0.00     0.107 C 
ATOM      7  C   UNL     1      -3.874  -2.369   0.567  1.00  0.00     0.026 C 
ATOM      8  C   UNL     1      -4.676  -2.539  -0.729  1.00  0.00     0.004 C 
ATOM      9  C   UNL     1      -2.534  -2.499  -2.058  1.00  0.00     0.123 C 
ATOM     10  C   UNL     1      -3.840  -3.252  -1.793  1.00  0.00     0.022 C 
BRANCH   6  11
ATOM     11  C   UNL     1      -2.709  -0.107   0.073  1.00  0.00     0.152 C 
BRANCH  11  12
ATOM     12  C   UNL     1      -1.381   0.579  -0.118  1.00  0.00     0.315 C 
ATOM     13  O   UNL     1      -0.489   0.493   0.771  1.00  0.00    -0.251 OA
BRANCH  12  14
ATOM     14  O   UNL     1      -1.143   1.301  -1.290  1.00  0.00    -0.468 OA
ATOM     15  C   UNL     1       0.074   2.002  -1.516  1.00  0.00     0.282 C 
ENDBRANCH  12  14
ENDBRANCH  11  12
BRANCH  11  16
ATOM     16  C   UNL     1      -3.491   0.599   1.168  1.00  0.00    -0.032 A 
ATOM     17  C   UNL     1      -4.668   1.304   0.851  1.00  0.00     0.004 A 
ATOM     18  C   UNL     1      -3.054   0.571   2.511  1.00  0.00     0.004 A 
ATOM     19  C   UNL     1      -5.386   1.969   1.848  1.00  0.00     0.000 A 
ATOM     20  C   UNL     1      -3.778   1.237   3.504  1.00  0.00     0.000 A 
ATOM     21  C   UNL     1      -4.940   1.938   3.172  1.00  0.00     0.000 A 
ENDBRANCH  11  16
ENDBRANCH   6  11
ENDBRANCH   3   5
ENDBRANCH   2   3
ENDBRANCH   1   2
BRANCH   1  22
ATOM     22  N   UNL     1       2.415  -1.833  -1.874  1.00  0.00    -0.169 N 
ATOM     23  C   UNL     1       2.473  -1.101  -3.026  1.00  0.00     0.311 A 
ATOM     24  C   UNL     1       2.946  -1.344  -0.710  1.00  0.00     0.325 A 
ATOM     25  C   UNL     1       3.105   0.142  -3.044  1.00  0.00     0.072 A 
ATOM     26  C   UNL     1       3.562  -0.082  -0.675  1.00  0.00     0.103 A 
ATOM     27  C   UNL     1       3.653   0.651  -1.869  1.00  0.00     0.026 A 
BRANCH  26  28
ATOM     28  C   UNL     1       4.107   0.447   0.599  1.00  0.00     0.257 C 
ATOM     29  O   UNL     1       4.489  -0.360   1.489  1.00  0.00    -0.269 OA
ATOM     30  N   UNL     1       4.174   1.862   0.846  1.00  0.00    -0.341 N 
ATOM     31  H   UNL     1       3.745   2.521   0.158  1.00  0.00     0.164 HD
BRANCH  30  32
ATOM     32  C   UNL     1       4.898   2.421   1.998  1.00  0.00     0.154 C 
BRANCH  32  33
ATOM     33  C   UNL     1       6.395   2.544   1.661  1.00  0.00     0.187 C 
BRANCH  33  34
ATOM     34  O   UNL     1       6.598   3.309   0.502  1.00  0.00    -0.394 OA
ATOM     35  H   UNL     1       6.514   4.261   0.767  1.00  0.00     0.210 HD
ENDBRANCH  33  34
ENDBRANCH  32  33
BRANCH  32  36
ATOM     36  C   UNL     1       4.292   3.738   2.424  1.00  0.00     0.066 C 
ATOM     37  O   UNL     1       5.077   4.722   3.019  1.00  0.00    -0.548 OA
ATOM     38  O   UNL     1       3.045   3.918   2.336  1.00  0.00    -0.548 OA
ENDBRANCH  32  36
ENDBRANCH  30  32
ENDBRANCH  26  28
ENDBRANCH   1  22
TORSDOF 13
