REMARK SMILES COc1cc(F)c(-n2c(=O)[nH]c3csc(C(=O)O)c3c2=O)cc1OCc1c(OC)ccc(F)c1F
REMARK SMILES IDX 23 1 3 2 4 3 5 4 6 5 7 6 22 7 24 8 25 9 26 10 27 11 30 12
REMARK SMILES IDX 34 13 31 14 35 15 32 16 33 17 28 18 29 19 2 20 1 21 8 22
REMARK SMILES IDX 9 23 20 24 10 25 11 26 19 27 21 28 12 29 15 31 13 32 14 33
REMARK SMILES IDX 16 34 17 35 18 36
REMARK H PARENT 11 30 18 37
REMARK Flexibility Score: inf
ROOT
ATOM      1  C   UNL     1      -0.586  -1.089   0.640  1.00  0.00     0.163 A 
ATOM      2  C   UNL     1      -0.637  -2.464   0.917  1.00  0.00     0.163 A 
ATOM      3  C   UNL     1       0.496  -3.264   0.679  1.00  0.00     0.092 A 
ATOM      4  C   UNL     1       1.667  -2.700   0.168  1.00  0.00     0.151 A 
ATOM      5  F   UNL     1       2.753  -3.486  -0.039  1.00  0.00    -0.205 F 
ATOM      6  C   UNL     1       1.723  -1.327  -0.115  1.00  0.00     0.094 A 
ATOM      7  C   UNL     1       0.597  -0.526   0.124  1.00  0.00     0.080 A 
ENDROOT
BRANCH   1   8
ATOM      8  O   UNL     1      -1.731  -0.317   0.891  1.00  0.00    -0.485 OA
BRANCH   8   9
ATOM      9  C   UNL     1      -1.831   1.085   0.653  1.00  0.00     0.272 C 
BRANCH   9  10
ATOM     10  C   UNL     1      -3.215   1.549   1.020  1.00  0.00     0.070 A 
ATOM     11  C   UNL     1      -4.290   1.347   0.128  1.00  0.00     0.128 A 
ATOM     12  C   UNL     1      -5.584   1.761   0.501  1.00  0.00     0.050 A 
ATOM     13  C   UNL     1      -3.457   2.126   2.282  1.00  0.00     0.169 A 
ATOM     14  C   UNL     1      -5.806   2.351   1.746  1.00  0.00     0.046 A 
ATOM     15  F   UNL     1      -2.446   2.294   3.172  1.00  0.00    -0.203 F 
ATOM     16  C   UNL     1      -4.747   2.530   2.636  1.00  0.00     0.159 A 
ATOM     17  F   UNL     1      -4.974   3.092   3.849  1.00  0.00    -0.204 F 
BRANCH  11  18
ATOM     18  O   UNL     1      -4.040   0.732  -1.111  1.00  0.00    -0.496 OA
ATOM     19  C   UNL     1      -5.032   0.461  -2.095  1.00  0.00     0.278 C 
ENDBRANCH  11  18
ENDBRANCH   9  10
ENDBRANCH   8   9
ENDBRANCH   1   8
BRANCH   2  20
ATOM     20  O   UNL     1      -1.831  -2.996   1.429  1.00  0.00    -0.493 OA
ATOM     21  C   UNL     1      -2.028  -4.368   1.755  1.00  0.00     0.278 C 
ENDBRANCH   2  20
BRANCH   6  22
ATOM     22  N   UNL     1       2.929  -0.737  -0.640  1.00  0.00    -0.225 N 
ATOM     23  C   UNL     1       3.353  -1.063  -1.907  1.00  0.00     0.333 A 
ATOM     24  C   UNL     1       3.647   0.146   0.131  1.00  0.00     0.270 A 
ATOM     25  O   UNL     1       2.683  -1.861  -2.620  1.00  0.00    -0.247 OA
ATOM     26  N   UNL     1       4.500  -0.529  -2.411  1.00  0.00    -0.306 N 
ATOM     27  C   UNL     1       4.805   0.739  -0.396  1.00  0.00     0.089 A 
ATOM     28  O   UNL     1       3.283   0.389   1.314  1.00  0.00    -0.268 OA
ATOM     29  C   UNL     1       5.222   0.351  -1.676  1.00  0.00     0.067 A 
ATOM     30  H   UNL     1       4.822  -0.798  -3.370  1.00  0.00     0.171 HD
ATOM     31  C   UNL     1       5.679   1.661   0.207  1.00  0.00     0.127 A 
ATOM     32  C   UNL     1       6.413   0.921  -2.104  1.00  0.00     0.092 A 
ATOM     33  S   UNL     1       6.949   1.927  -0.871  1.00  0.00    -0.134 S 
BRANCH  31  34
ATOM     34  C   UNL     1       5.562   2.367   1.496  1.00  0.00     0.346 C 
ATOM     35  O   UNL     1       6.602   2.798   2.062  1.00  0.00    -0.245 OA
BRANCH  34  36
ATOM     36  O   UNL     1       4.320   2.628   2.064  1.00  0.00    -0.477 OA
ATOM     37  H   UNL     1       4.243   3.134   2.939  1.00  0.00     0.297 HD
ENDBRANCH  34  36
ENDBRANCH  31  34
ENDBRANCH   6  22
TORSDOF 8
