REMARK SMILES COc1ccc(F)cc1C(=O)NCc1ccc(-c2nn([C@@H](C)C(F)(F)F)c(N)c2C(N)=O)cc1
REMARK SMILES IDX 14 1 15 2 16 3 17 4 33 5 34 6 13 7 12 8 10 9 11 10 9 12 3 13
REMARK SMILES IDX 4 14 8 15 5 16 6 17 7 18 2 19 1 20 18 21 19 22 29 23 20 24
REMARK SMILES IDX 27 25 30 26 31 27 32 28 21 31 22 32 23 33 24 34 25 35 26 36
REMARK SMILES IDX 28 37
REMARK H PARENT 12 11 31 29 31 30 28 38 28 39
REMARK Flexibility Score: inf
ROOT
ATOM      1  C   UNL     1       1.259  -0.197   2.443  1.00  0.00    -0.029 A 
ATOM      2  C   UNL     1       0.935  -1.341   1.699  1.00  0.00     0.006 A 
ATOM      3  C   UNL     1      -0.239  -1.382   0.941  1.00  0.00     0.011 A 
ATOM      4  C   UNL     1      -1.097  -0.270   0.902  1.00  0.00     0.003 A 
ATOM      5  C   UNL     1      -0.782   0.866   1.663  1.00  0.00     0.011 A 
ATOM      6  C   UNL     1       0.394   0.907   2.419  1.00  0.00     0.006 A 
ENDROOT
BRANCH   1   7
ATOM      7  C   UNL     1       2.558  -0.136   3.197  1.00  0.00     0.152 C 
BRANCH   7   8
ATOM      8  N   UNL     1       3.663   0.037   2.258  1.00  0.00    -0.348 N 
ATOM      9  C   UNL     1       3.892   1.273   1.568  1.00  0.00     0.255 C 
ATOM     10  O   UNL     1       3.446   2.352   2.046  1.00  0.00    -0.269 OA
ATOM     11  H   UNL     1       4.265  -0.789   2.043  1.00  0.00     0.164 HD
BRANCH   9  12
ATOM     12  C   UNL     1       4.668   1.301   0.309  1.00  0.00     0.084 A 
ATOM     13  C   UNL     1       4.515   0.288  -0.665  1.00  0.00     0.131 A 
ATOM     14  C   UNL     1       5.291   0.342  -1.840  1.00  0.00     0.050 A 
ATOM     15  C   UNL     1       5.550   2.368   0.068  1.00  0.00     0.057 A 
ATOM     16  C   UNL     1       6.180   1.397  -2.055  1.00  0.00     0.043 A 
ATOM     17  C   UNL     1       6.304   2.412  -1.107  1.00  0.00     0.124 A 
ATOM     18  F   UNL     1       7.162   3.440  -1.323  1.00  0.00    -0.207 F 
BRANCH  13  19
ATOM     19  O   UNL     1       3.573  -0.732  -0.451  1.00  0.00    -0.496 OA
ATOM     20  C   UNL     1       3.313  -1.799  -1.356  1.00  0.00     0.278 C 
ENDBRANCH  13  19
ENDBRANCH   9  12
ENDBRANCH   7   8
ENDBRANCH   1   7
BRANCH   4  21
ATOM     21  C   UNL     1      -2.344  -0.297   0.110  1.00  0.00     0.107 A 
ATOM     22  N   UNL     1      -3.502   0.226   0.563  1.00  0.00    -0.169 NA
ATOM     23  C   UNL     1      -2.557  -0.886  -1.135  1.00  0.00     0.109 A 
ATOM     24  N   UNL     1      -4.444   0.004  -0.342  1.00  0.00    -0.237 N 
ATOM     25  C   UNL     1      -3.907  -0.687  -1.373  1.00  0.00     0.135 A 
BRANCH  23  26
ATOM     26  C   UNL     1      -1.573  -1.515  -2.037  1.00  0.00     0.254 C 
ATOM     27  N   UNL     1      -0.249  -0.991  -2.156  1.00  0.00    -0.365 N 
ATOM     28  O   UNL     1      -1.904  -2.515  -2.727  1.00  0.00    -0.269 OA
ATOM     29  H   UNL     1       0.445  -1.459  -2.779  1.00  0.00     0.159 HD
ATOM     30  H   UNL     1       0.027  -0.108  -1.672  1.00  0.00     0.159 HD
ENDBRANCH  23  26
BRANCH  24  31
ATOM     31  C   UNL     1      -5.854   0.385  -0.169  1.00  0.00     0.211 C 
ATOM     32  C   UNL     1      -6.626  -0.771   0.474  1.00  0.00     0.043 C 
BRANCH  31  33
ATOM     33  C   UNL     1      -5.991   1.681   0.654  1.00  0.00     0.410 C 
ATOM     34  F   UNL     1      -5.571   1.486   1.959  1.00  0.00    -0.169 F 
ATOM     35  F   UNL     1      -5.225   2.681   0.080  1.00  0.00    -0.169 F 
ATOM     36  F   UNL     1      -7.312   2.093   0.667  1.00  0.00    -0.169 F 
ENDBRANCH  31  33
ENDBRANCH  24  31
BRANCH  25  37
ATOM     37  N   UNL     1      -4.626  -1.103  -2.539  1.00  0.00    -0.383 N 
ATOM     38  H   UNL     1      -4.131  -1.527  -3.353  1.00  0.00     0.158 HD
ATOM     39  H   UNL     1      -5.661  -1.001  -2.606  1.00  0.00     0.158 HD
ENDBRANCH  25  37
ENDBRANCH   4  21
TORSDOF 9
